*Heading
** Job name: quad-quad-5 Model name: Model-1
** Generated by: Abaqus/CAE 2022
*Preprint, echo=NO, model=NO, history=NO, contact=NO
**
** PARTS
**
*Part, name=osso
*End Part
**  
**
** ASSEMBLY
**
*Assembly, name=Assembly
**  
*Instance, name=osso-4, part=osso
*Node
      1,        -3.75,        -42.5
      2,         22.5,        -42.5
      3,   25.2538605,  -15.0587225
      4,   28.9005451,   7.19905329
      5,   31.6401596,   20.8594189
      6,   32.5844383,   25.4065781
      7,   33.1908607,   30.0026741
      8,   32.1227226,   34.4562111
      9,   27.5368309,   38.1999474
     10,   18.7820969,   42.2123222
     11,   14.2394934,    43.807106
     12,   9.75062466,   44.7771568
     13,   5.16473389,   44.9634094
     14,  0.625284135,   44.2808914
     15,   -3.7290206,   42.8246994
     16,  -8.00099087,   40.5162544
     17,  -12.0280609,   37.2114372
     18,  -15.2949638,   33.1542625
     19,  -17.6189003,   28.4936619
     20,  -18.9151115,    23.447422
** ... 728 like lines cut
*Element, type=CPS8R
  1,  68,  33,  34,  69, 260, 261, 262, 263
  2,  79,  76,  68,  92, 264, 265, 266, 267
  3,  67,  64,  75,  86, 268, 269, 270, 271
  4, 109, 105, 231, 228, 272, 273, 274, 275
  5,  64,  50,  30,  91, 276, 277, 278, 279
  6,  27,  28,  58,  56, 280, 281, 282, 283
  7,  55,  58,  28,  29, 284, 281, 285, 286
  8, 147, 131, 122, 233, 287, 288, 289, 290
  9,  56, 226,  26,  27, 291, 292, 293, 283
 10,  12, 119, 122,  11, 294, 295, 296, 297
 11, 103, 138,  98,  88, 298, 299, 300, 301
 12, 238,  65,  60, 230, 302, 303, 304, 305
 13,  65,  72,  63, 237, 306, 307, 308, 309
 14, 237, 227,  60,  65, 310, 311, 303, 309
 15,  25,  26, 226,  60, 312, 292, 313, 314
 16,  72,  87,  73,  63, 315, 316, 317, 307
 17,  57, 227, 237,  63, 318, 310, 308, 319
 18,  99, 236,  89, 110, 320, 321, 322, 323
 19,  57,  63,  73,  66, 319, 317, 324, 325
 20,  24,  57,  66,  23, 326, 325, 327, 328
** ... 211 like lines cut
*Nset, nset=set-osso, generate
   1,  748,    1
*Elset, elset=set-osso, generate
   1,  231,    1
** Section: osso-section
*Solid Section, elset=set-osso, material=osso
22.5,
*End Instance
**  
*Node
      1,  -6.01999998,   41.7099991,           0.
*Node
      2,   29.8199997,   36.8199997,           0.
*Node
      3,   7.30999994,   18.3700008,           0.
*Nset, nset=Set-2
 1,
*Nset, nset=Set-4
 2,
*Nset, nset=base-osso, instance=osso-4
   1,   2,  32,  33,  34,  35,  36, 261, 351, 353, 400, 402, 447
*Elset, elset=base-osso, instance=osso-4
  1, 28, 29, 43, 44, 62
*Nset, nset=m_Set-3
 1,
*Nset, nset=m_Set-5
 2,
*Nset, nset=m_Set-7
 3,
*Nset, nset=m_Set-8
 3,
*Nset, nset=test-points, instance=osso-4
  3,  4, 11, 31
*Elset, elset=_s_Surf-1_S2, internal, instance=osso-4
 38,
*Surface, type=ELEMENT, name=s_Surf-1
_s_Surf-1_S2, S2
*Elset, elset=_s_Surf-2_S4, internal, instance=osso-4
 24,
*Surface, type=ELEMENT, name=s_Surf-2
_s_Surf-2_S4, S4
*Elset, elset=_s_Surf-3_S2, internal, instance=osso-4
 38,
*Surface, type=ELEMENT, name=s_Surf-3
_s_Surf-3_S2, S2
*Elset, elset=_s_Surf-4_S4, internal, instance=osso-4
 24,
*Surface, type=ELEMENT, name=s_Surf-4
_s_Surf-4_S4, S4
** Constraint: Constraint-1
*Coupling, constraint name=Constraint-1, ref node=m_Set-3, surface=s_Surf-1
*Distributing, weighting method=UNIFORM
** Constraint: Constraint-2
*Coupling, constraint name=Constraint-2, ref node=m_Set-5, surface=s_Surf-2
*Distributing, weighting method=UNIFORM
** Constraint: Constraint-3
*Coupling, constraint name=Constraint-3, ref node=m_Set-7, surface=s_Surf-3
*Distributing, weighting method=UNIFORM
** Constraint: Constraint-4
*Coupling, constraint name=Constraint-4, ref node=m_Set-8, surface=s_Surf-4
*Distributing, weighting method=UNIFORM
*End Assembly
** 
** MATERIALS
** 
*Material, name=osso
*Elastic
17000., 0.3
** ----------------------------------------------------------------
** 
** STEP: step-1
** 
*Step, name=step-1, nlgeom=NO
*Static
1., 1., 1e-05, 1.
** 
** BOUNDARY CONDITIONS
** 
** Name: encastre-osso Type: Symmetry/Antisymmetry/Encastre
*Boundary
base-osso, ENCASTRE
** 
** LOADS
** 
** Name: FH2   Type: Concentrated force
*Cload
Set-2, 1, 150.
Set-2, 2, -259.
** Name: Load-2   Type: Concentrated force
*Cload
Set-4, 1, -50.
Set-4, 2, 86.
** 
** OUTPUT REQUESTS
** 
*Restart, write, frequency=0
** 
** FIELD OUTPUT: F-Output-1
** 
*Output, field, variable=PRESELECT
** 
** HISTORY OUTPUT: H-Output-1
** 
*Output, history, variable=PRESELECT
*End Step
