*Heading
** Job name: quad-lin-2 Model name: Model-1
** Generated by: Abaqus/CAE 2022
*Preprint, echo=NO, model=NO, history=NO, contact=NO
**
** PARTS
**
*Part, name=osso
*End Part
**  
**
** ASSEMBLY
**
*Assembly, name=Assembly
**  
*Instance, name=osso-4, part=osso
*Node
      1,           0.,        -42.5
      2,        5.625,        -42.5
      3,        9.375,        -42.5
      4,       13.125,        -42.5
      5,        18.75,        -42.5
      6,        -3.75,        -42.5
      7,         22.5,        -42.5
      8,   22.8378868,  -38.5743103
      9,   23.3599014,  -32.6871109
     10,    23.728157,  -28.7641563
     11,   24.1207104,   -24.843565
     12,   24.7702637,  -18.9691086
     13,   25.2538605,  -15.0587225
     14,   26.1070499,  -8.96609402
     15,   26.7422009,  -4.91414118
     16,    27.779686,   1.14987051
     17,   28.9005451,   7.19905329
     18,   29.6604996,   11.1059771
     19,   30.8378582,   16.9589596
     20,    31.639761,   20.8574944
** ... 1066 like lines cut
*Element, type=CPS4R
   1,  295,  308,  330,   57
   2,   56,  328,  327,  293
   3,  611,  695,  930,  718
   4,  562,  439,  526,   69
   5,  477,  550,  483,   62
   6,  564,  527,  491,   66
   7,   59,    8,  240,  337
   8,  337,  240,  241,   65
   9,  338,    9,  242,   71
  10,  392,  413,  336,   77
  11,  571,   84,  622,  545
  12,  805,  772,  959,  778
  13,   98,  608,  566,  495
  14,  984,  937,  613,  726
  15,  296,  107,  917,  387
  16,  297,   49,  296,  407
  17,  296,   49,   50,  107
  18,  107,   50,  285,  316
  19,  419,  399,  108,  301
  20,  442,  529,   98,  495
** ... 1004 like lines cut
*Nset, nset=set-osso, generate
    1,  1086,     1
*Elset, elset=set-osso, generate
    1,  1024,     1
** Section: osso-section
*Solid Section, elset=set-osso, material=osso
22.5,
*End Instance
**  
*Node
      1,  -6.01999998,   41.7099991,           0.
*Node
      2,   29.8199997,   36.8199997,           0.
*Node
      3,   7.30999994,   18.3700008,           0.
*Nset, nset=Set-2
 1,
*Nset, nset=Set-4
 2,
*Nset, nset=base-osso, instance=osso-4
   1,   2,   3,   4,   5,   6,   7, 231, 232, 233, 234, 235, 236, 237, 238
*Elset, elset=base-osso, instance=osso-4
  26,  27,  29,  30, 220, 222, 361, 362, 363, 365, 366, 367, 401, 410
*Nset, nset=m_Set-3
 1,
*Nset, nset=m_Set-5
 2,
*Nset, nset=m_Set-7
 3,
*Nset, nset=m_Set-8
 3,
*Nset, nset=test-points, instance=osso-4
 13, 17, 30, 54
*Elset, elset=_s_Surf-1_S4, internal, instance=osso-4
 162, 380
*Elset, elset=_s_Surf-1_S2, internal, instance=osso-4
 163,
*Surface, type=ELEMENT, name=s_Surf-1
_s_Surf-1_S4, S4
_s_Surf-1_S2, S2
*Elset, elset=_s_Surf-2_S4, internal, instance=osso-4
 123, 125
*Elset, elset=_s_Surf-2_S2, internal, instance=osso-4
 124,
*Surface, type=ELEMENT, name=s_Surf-2
_s_Surf-2_S4, S4
_s_Surf-2_S2, S2
*Elset, elset=_s_Surf-3_S4, internal, instance=osso-4
 162, 380
*Elset, elset=_s_Surf-3_S2, internal, instance=osso-4
 163,
*Surface, type=ELEMENT, name=s_Surf-3
_s_Surf-3_S4, S4
_s_Surf-3_S2, S2
*Elset, elset=_s_Surf-4_S4, internal, instance=osso-4
 123, 125
*Elset, elset=_s_Surf-4_S2, internal, instance=osso-4
 124,
*Surface, type=ELEMENT, name=s_Surf-4
_s_Surf-4_S4, S4
_s_Surf-4_S2, S2
** Constraint: Constraint-1
*Coupling, constraint name=Constraint-1, ref node=m_Set-3, surface=s_Surf-1
*Distributing, weighting method=UNIFORM
** Constraint: Constraint-2
*Coupling, constraint name=Constraint-2, ref node=m_Set-5, surface=s_Surf-2
*Distributing, weighting method=UNIFORM
** Constraint: Constraint-3
*Coupling, constraint name=Constraint-3, ref node=m_Set-7, surface=s_Surf-3
*Distributing, weighting method=UNIFORM
** Constraint: Constraint-4
*Coupling, constraint name=Constraint-4, ref node=m_Set-8, surface=s_Surf-4
*Distributing, weighting method=UNIFORM
*End Assembly
** 
** MATERIALS
** 
*Material, name=osso
*Elastic
17000., 0.3
** ----------------------------------------------------------------
** 
** STEP: step-1
** 
*Step, name=step-1, nlgeom=NO
*Static
1., 1., 1e-05, 1.
** 
** BOUNDARY CONDITIONS
** 
** Name: encastre-osso Type: Symmetry/Antisymmetry/Encastre
*Boundary
base-osso, ENCASTRE
** 
** LOADS
** 
** Name: FH2   Type: Concentrated force
*Cload
Set-2, 1, 150.
Set-2, 2, -259.
** Name: Load-2   Type: Concentrated force
*Cload
Set-4, 1, -50.
Set-4, 2, 86.
** 
** OUTPUT REQUESTS
** 
*Restart, write, frequency=0
** 
** FIELD OUTPUT: F-Output-1
** 
*Output, field, variable=PRESELECT
** 
** HISTORY OUTPUT: H-Output-1
** 
*Output, history, variable=PRESELECT
*End Step
