*Heading
** Job name: tri-quad-2 Model name: Model-1
** Generated by: Abaqus/CAE 2022
*Preprint, echo=NO, model=NO, history=NO, contact=NO
**
** PARTS
**
*Part, name=osso
*End Part
**  
**
** ASSEMBLY
**
*Assembly, name=Assembly
**  
*Instance, name=osso-4, part=osso
*Node
      1,  0.288461536,        -42.5
      2,   4.32692289,        -42.5
      3,   8.36538506,        -42.5
      4,   14.4230766,        -42.5
      5,   18.4615383,        -42.5
      6,        -3.75,        -42.5
      7,         22.5,        -42.5
      8,   22.8378868,  -38.5743103
      9,   23.3599014,  -32.6871109
     10,    23.728157,  -28.7641563
     11,   24.1207104,   -24.843565
     12,   24.7702637,  -18.9691086
     13,   25.2538605,  -15.0587225
     14,   26.1070499,  -8.96609402
     15,   26.7422009,  -4.91414118
     16,    27.779686,   1.14987051
     17,   28.9005451,   7.19905329
     18,   29.6604996,   11.1059771
     19,   30.8378582,   16.9589596
     20,    31.639761,   20.8574944
** ... 3576 like lines cut
*Element, type=CPS6M
   1,  706,  316,  317,  931,  932,  933
   2,  655,   64,  635,  934,  935,  936
   3,  651,  634,   62,  937,  938,  939
   4,  579,  537,  496,  940,  941,  942
   5,  447,   61,  418,  943,  944,  945
   6,  444,   60,  419,  946,  947,  948
   7,  240,   59,    8,  949,  950,  951
   8,  241,  575,  240,  952,  953,  954
   9,  325,    9,  242,  955,  956,  957
  10,  325,  242,   71,  957,  958,  959
  11,  406,  324,  391,  960,  961,  962
  12,  513,  428,  458,  963,  964,  965
  13,  607,  576,   85,  966,  967,  968
  14,  764,  694,  753,  969,  970,  971
  15,  595,  571,   99,  972,  973,  974
  16,  599,  566,  107,  975,  976,  977
  17,  385,  296,  108,  978,  979,  980
  18,  297,   49,  296,  981,  982,  983
  19,  296,   49,   50,  982,  984,  985
  20,  296,   50,  108,  985,  986,  979
** ... 1717 like lines cut
*Nset, nset=set-osso, generate
    1,  3596,     1
*Elset, elset=set-osso, generate
    1,  1737,     1
** Section: osso-section
*Solid Section, elset=set-osso, material=osso
22.5,
*End Instance
**  
*Node
      1,  -6.01999998,   41.7099991,           0.
*Node
      2,   29.8199997,   36.8199997,           0.
*Node
      3,   7.30999994,   18.3700008,           0.
*Nset, nset=Set-2
 1,
*Nset, nset=Set-4
 2,
*Nset, nset=base-osso, instance=osso-4
    1,    2,    3,    4,    5,    6,    7,  232,  233,  234,  235,  236,  237,  238, 1012, 1020
 1025, 1630, 2071, 2078, 2080, 2178, 2354, 2370, 2372, 2374, 2375
*Elset, elset=base-osso, instance=osso-4
  30,  33,  35, 249, 415, 418, 419, 467, 587, 597, 599, 601, 602
*Nset, nset=m_Set-3
 1,
*Nset, nset=m_Set-5
 2,
*Nset, nset=m_Set-7
 3,
*Nset, nset=m_Set-8
 3,
*Nset, nset=test-points, instance=osso-4
 13, 17, 30, 54
*Elset, elset=_s_Surf-1_S2, internal, instance=osso-4
 445, 472, 475
*Surface, type=ELEMENT, name=s_Surf-1
_s_Surf-1_S2, S2
*Elset, elset=_s_Surf-2_S2, internal, instance=osso-4
 137, 438
*Elset, elset=_s_Surf-2_S3, internal, instance=osso-4
 138,
*Surface, type=ELEMENT, name=s_Surf-2
_s_Surf-2_S2, S2
_s_Surf-2_S3, S3
*Elset, elset=_s_Surf-3_S2, internal, instance=osso-4
 445, 472, 475
*Surface, type=ELEMENT, name=s_Surf-3
_s_Surf-3_S2, S2
*Elset, elset=_s_Surf-4_S2, internal, instance=osso-4
 137, 438
*Elset, elset=_s_Surf-4_S3, internal, instance=osso-4
 138,
*Surface, type=ELEMENT, name=s_Surf-4
_s_Surf-4_S2, S2
_s_Surf-4_S3, S3
** Constraint: Constraint-1
*Coupling, constraint name=Constraint-1, ref node=m_Set-3, surface=s_Surf-1
*Distributing, weighting method=UNIFORM
** Constraint: Constraint-2
*Coupling, constraint name=Constraint-2, ref node=m_Set-5, surface=s_Surf-2
*Distributing, weighting method=UNIFORM
** Constraint: Constraint-3
*Coupling, constraint name=Constraint-3, ref node=m_Set-7, surface=s_Surf-3
*Distributing, weighting method=UNIFORM
** Constraint: Constraint-4
*Coupling, constraint name=Constraint-4, ref node=m_Set-8, surface=s_Surf-4
*Distributing, weighting method=UNIFORM
*End Assembly
** 
** MATERIALS
** 
*Material, name=osso
*Elastic
17000., 0.3
** ----------------------------------------------------------------
** 
** STEP: step-1
** 
*Step, name=step-1, nlgeom=NO
*Static
1., 1., 1e-05, 1.
** 
** BOUNDARY CONDITIONS
** 
** Name: encastre-osso Type: Symmetry/Antisymmetry/Encastre
*Boundary
base-osso, ENCASTRE
** 
** LOADS
** 
** Name: FH2   Type: Concentrated force
*Cload
Set-2, 1, 150.
Set-2, 2, -259.
** Name: Load-2   Type: Concentrated force
*Cload
Set-4, 1, -50.
Set-4, 2, 86.
** 
** OUTPUT REQUESTS
** 
*Restart, write, frequency=0
** 
** FIELD OUTPUT: F-Output-1
** 
*Output, field, variable=PRESELECT
** 
** HISTORY OUTPUT: H-Output-1
** 
*Output, history, variable=PRESELECT
*End Step
