*Heading
** Job name: tri-quad-10 Model name: Model-1
** Generated by: Abaqus/CAE 2022
*Preprint, echo=NO, model=NO, history=NO, contact=NO
**
** PARTS
**
*Part, name=osso
*End Part
**  
**
** ASSEMBLY
**
*Assembly, name=Assembly
**  
*Instance, name=osso-4, part=osso
*Node
      1,        -3.75,        -42.5
      2,         22.5,        -42.5
      3,   25.2538605,  -15.0587225
      4,   28.9005451,   7.19905329
      5,   31.0402641,   17.9479713
      6,   33.1262665,    28.703661
      7,   32.1227226,   34.4562111
      8,   27.5368309,   38.1999474
      9,   21.0007286,   41.2759857
     10,   14.2394934,    43.807106
     11,   5.16473436,   44.9634094
     12,   -3.7290206,   42.8246994
     13,  -8.00099087,   40.5162544
     14,  -14.5252361,   34.2786789
     15,  -18.3622093,   26.1152534
     16,  -19.2460041,    17.118187
     17,  -17.3898602,   8.29169655
     18,  -14.3455305,   4.14769602
     19,   -9.7921257,   1.98748684
     20,  -7.44485807,  -1.26311779
** ... 255 like lines cut
*Element, type=CPS6M
  1,  76,  25,  26,  78,  79,  80
  2,  49,  30,  25,  81,  82,  83
  3,  58,  54,  52,  84,  85,  86
  4,  63,  24,  49,  87,  88,  89
  5,  58,  42,  54,  90,  91,  84
  6,  32,  21,  22,  92,  93,  94
  7,  31,  20,  21,  95,  96,  97
  8,  33,  20,  31,  98,  95,  99
  9,  68,  56,  65, 100, 101, 102
 10,  38,   9,  10, 103, 104, 105
 11,  36,  33,  31, 106,  99, 107
 12,  46,  36,  41, 108, 109, 110
 13,  34,  13,  14, 111, 112, 113
 14,  62,  15,  51, 114, 115, 116
 15,  51,  16,  50, 117, 118, 119
 16,  59,  45,  56, 120, 121, 122
 17,  35,  17,  18, 123, 124, 125
 18,  35,  18,  19, 125, 126, 127
 19,  35,  19,  33, 127, 128, 129
 20,  39,   9,  38, 130, 103, 131
** ... 102 like lines cut
*Nset, nset=set-osso, generate
   1,  275,    1
*Elset, elset=set-osso, generate
   1,  122,    1
** Section: osso-section
*Solid Section, elset=set-osso, material=osso
22.5,
*End Instance
**  
*Node
      1,  -6.01999998,   41.7099991,           0.
*Node
      2,   29.8199997,   36.8199997,           0.
*Node
      3,   7.30999994,   18.3700008,           0.
*Nset, nset=Set-2
 1,
*Nset, nset=Set-4
 2,
*Nset, nset=base-osso, instance=osso-4
   1,   2,  25,  26,  79, 140, 153
*Elset, elset=base-osso, instance=osso-4
  1, 24, 28
*Nset, nset=m_Set-3
 1,
*Nset, nset=m_Set-5
 2,
*Nset, nset=m_Set-7
 3,
*Nset, nset=m_Set-8
 3,
*Nset, nset=test-points, instance=osso-4
  3,  4, 10, 24
*Elset, elset=_s_Surf-1_S2, internal, instance=osso-4
 36,
*Surface, type=ELEMENT, name=s_Surf-1
_s_Surf-1_S2, S2
*Elset, elset=_s_Surf-2_S2, internal, instance=osso-4
 45,
*Surface, type=ELEMENT, name=s_Surf-2
_s_Surf-2_S2, S2
*Elset, elset=_s_Surf-3_S2, internal, instance=osso-4
 36,
*Surface, type=ELEMENT, name=s_Surf-3
_s_Surf-3_S2, S2
*Elset, elset=_s_Surf-4_S2, internal, instance=osso-4
 45,
*Surface, type=ELEMENT, name=s_Surf-4
_s_Surf-4_S2, S2
** Constraint: Constraint-1
*Coupling, constraint name=Constraint-1, ref node=m_Set-3, surface=s_Surf-1
*Distributing, weighting method=UNIFORM
** Constraint: Constraint-2
*Coupling, constraint name=Constraint-2, ref node=m_Set-5, surface=s_Surf-2
*Distributing, weighting method=UNIFORM
** Constraint: Constraint-3
*Coupling, constraint name=Constraint-3, ref node=m_Set-7, surface=s_Surf-3
*Distributing, weighting method=UNIFORM
** Constraint: Constraint-4
*Coupling, constraint name=Constraint-4, ref node=m_Set-8, surface=s_Surf-4
*Distributing, weighting method=UNIFORM
*End Assembly
** 
** MATERIALS
** 
*Material, name=osso
*Elastic
17000., 0.3
** ----------------------------------------------------------------
** 
** STEP: step-1
** 
*Step, name=step-1, nlgeom=NO
*Static
1., 1., 1e-05, 1.
** 
** BOUNDARY CONDITIONS
** 
** Name: encastre-osso Type: Symmetry/Antisymmetry/Encastre
*Boundary
base-osso, ENCASTRE
** 
** LOADS
** 
** Name: FH2   Type: Concentrated force
*Cload
Set-2, 1, 150.
Set-2, 2, -259.
** Name: Load-2   Type: Concentrated force
*Cload
Set-4, 1, -50.
Set-4, 2, 86.
** 
** OUTPUT REQUESTS
** 
*Restart, write, frequency=0
** 
** FIELD OUTPUT: F-Output-1
** 
*Output, field, variable=PRESELECT
** 
** HISTORY OUTPUT: H-Output-1
** 
*Output, history, variable=PRESELECT
*End Step
