*Heading
** Job name: BLAH-bonebase Model name: Model-1
** Generated by: Abaqus/CAE 2022
*Preprint, echo=NO, model=NO, history=NO, contact=NO
**
** PARTS
**
*Part, name=bone-base
*End Part
**  
*Part, name=implante-2-Copy4
*End Part
**  
**
** ASSEMBLY
**
*Assembly, name=Assembly
**  
*Instance, name=implante-2-Copy4-1, part=implante-2-Copy4
   13.871379,    -5.815267,           0.
*Node
      1,  -1.64397871,    42.175106
      2,  -25.1849537,   19.3163319
      3,   -22.618803,   16.6735973
      4,  -20.7349701,   18.4677505
      5,  -22.3520794,   20.1656876
      6,  -18.3190575,   24.0067215
      7,  -16.7019482,   22.3087826
      8,   1.35374999,   3.35059237
      9,   13.5375004,   14.9543428
     10,  -4.51819849,   33.9125328
     11,  -6.13530731,   35.6104736
     12,   -1.9432826,   39.6029396
     13, -0.326174021,   37.9049988
     14,   1.14336121,   39.3045807
     15,   4.69218206,   48.3276482
     16,  -14.1971216,   52.1774483
     17,  -20.6987076,   50.0200653
     18,  -31.1362495,   13.5375004
     19,   -2.6674993,   41.1812439
     20,  -3.69102001,   40.1873856
** ... 2353 like lines cut
*Element, type=CPS8R
  1,  361,   40,    2,   41,  814,  815,  816,  817
  2,    5,   40,  361,   43,  818,  814,  819,  820
  3,   44,   45,   38,   39,  821,  822,  823,  824
  4,    6,   47,  151,  206,  825,  826,  827,  828
  5,   22,   91,   92,   21,  829,  830,  831,  832
  6,  154,  360,   12,   94,  833,  834,  835,  836
  7,  154,   94,   13,  152,  836,  837,  838,  839
  8,   95,   96,  154,  152,  840,  841,  839,  842
  9,  158,   25,   26,  199,  843,  844,  845,  846
 10,  156,   31,   32,  157,  847,  848,  849,  850
 11,  159,   30,   31,  156,  851,  852,  847,  853
 12,  151,  153,  198,  163,  854,  855,  856,  857
 13,   39,   40,    5,   44,  858,  818,  859,  824
 14,   45,   46,   37,   38,  860,  861,  862,  822
 15,   35,   36,    6,  206,  863,  864,  828,  865
 16,  362,  206,  151,  163,  866,  827,  857,  867
 17,  240,  167,  176,  216,  868,  869,  870,  871
 18,  153,  151,   47,    7,  854,  826,  872,  873
 19,   49,   50,  178,  176,  874,  875,  876,  877
 20,  242,  205,  241,  343,  878,  879,  880,  881
** ... 728 like lines cut
*Nset, nset=Set-1
    1,    2,   15,   16,   17,   18,   19,   20,   21,   22,   23,   24,   25,   26,   27,   28
   29,   30,   31,   32,   33,   34,   35,   36,   37,   38,   39,   40,   97,   98,   99,  100
  101,  102,  103,  104,  105,  106,  107,  108,  109,  110,  111,  112,  113,  114,  115,  116
  117,  118,  119,  120,  121,  122,  123,  124,  125,  126,  127,  128,  129,  130,  131,  132
  133,  134,  135,  136,  137,  138,  139,  140,  141,  142,  143,  144,  145,  146,  147,  148
  149,  150,  371,  372,  373,  374,  375,  376,  377,  378,  379,  380,  381,  382,  383,  384
  385,  386,  387,  388,  389,  390,  391,  392,  393,  394,  395,  396,  397,  398,  399,  400
  401,  402,  403,  404,  405,  406,  407,  408,  409,  410,  411,  412,  413,  414,  415,  416
  417,  418,  419,  420,  421,  422,  423,  424,  425,  426,  427,  428,  429,  430,  431,  432
  433,  434,  435,  436,  437,  438,  439,  440,  441,  442,  443,  444,  445,  446,  447,  448
  449,  450,  451,  452,  453,  454,  455,  456,  457,  458,  459,  460,  461,  462,  463,  464
  465,  466,  467,  468,  469,  470,  471,  472,  473,  474,  475,  476,  477,  478,  479,  480
  481,  482,  483,  484,  485,  486,  487,  488,  489,  490,  491,  492,  493,  494,  495,  496
  497,  498,  499,  500,  501,  502,  503,  504,  505,  506,  507,  508,  509,  510,  511,  512
  513,  514,  515,  516,  517,  518,  519,  520,  521,  522,  523,  524,  525,  526,  527,  528
  529,  530,  531,  532,  533,  534,  535,  536,  537,  538,  539,  540,  541,  542,  543,  544
  545,  546,  547,  548,  549,  550,  551,  552,  553,  554,  555,  556,  557,  558,  559,  560
  561,  562,  563,  564,  565,  566,  567,  568,  569,  570,  571,  572,  573,  574,  575,  576
  577,  578,  579,  580,  581,  582,  583,  584,  585,  586,  587,  588,  589,  590,  591,  592
  593,  594,  595,  596,  597,  598,  599,  600,  601,  602,  603,  604,  605,  606,  607,  608
** ... 76 like lines cut
*Elset, elset=Set-1, generate
 266,  748,    1
*Nset, nset=Set-2
    1,    2,    3,    4,    5,    6,    7,    8,    9,   10,   11,   12,   13,   14,   19,   20
   21,   22,   23,   24,   25,   26,   27,   28,   29,   30,   31,   32,   33,   34,   35,   36
   37,   38,   39,   40,   41,   42,   43,   44,   45,   46,   47,   48,   49,   50,   51,   52
   53,   54,   55,   56,   57,   58,   59,   60,   61,   62,   63,   64,   65,   66,   67,   68
   69,   70,   71,   72,   73,   74,   75,   76,   77,   78,   79,   80,   81,   82,   83,   84
   85,   86,   87,   88,   89,   90,   91,   92,   93,   94,   95,   96,  151,  152,  153,  154
  155,  156,  157,  158,  159,  160,  161,  162,  163,  164,  165,  166,  167,  168,  169,  170
  171,  172,  173,  174,  175,  176,  177,  178,  179,  180,  181,  182,  183,  184,  185,  186
  187,  188,  189,  190,  191,  192,  193,  194,  195,  196,  197,  198,  199,  200,  201,  202
  203,  204,  205,  206,  207,  208,  209,  210,  211,  212,  213,  214,  215,  216,  217,  218
  219,  220,  221,  222,  223,  224,  225,  226,  227,  228,  229,  230,  231,  232,  233,  234
  235,  236,  237,  238,  239,  240,  241,  242,  243,  244,  245,  246,  247,  248,  249,  250
  251,  252,  253,  254,  255,  256,  257,  258,  259,  260,  261,  262,  263,  264,  265,  266
  267,  268,  269,  270,  271,  272,  273,  274,  275,  276,  277,  278,  279,  280,  281,  282
  283,  284,  285,  286,  287,  288,  289,  290,  291,  292,  293,  294,  295,  296,  297,  298
  299,  300,  301,  302,  303,  304,  305,  306,  307,  308,  309,  310,  311,  312,  313,  314
  315,  316,  317,  318,  319,  320,  321,  322,  323,  324,  325,  326,  327,  328,  329,  330
  331,  332,  333,  334,  335,  336,  337,  338,  339,  340,  341,  342,  343,  344,  345,  346
  347,  348,  349,  350,  351,  352,  353,  354,  355,  356,  357,  358,  359,  360,  361,  362
  363,  364,  365,  366,  367,  368,  369,  370,  814,  815,  816,  817,  818,  819,  820,  821
** ... 36 like lines cut
*Elset, elset=Set-2, generate
   1,  265,    1
*Nset, nset=Set-3
    1,    2,   15,   16,   17,   18,   19,   20,   21,   22,   23,   24,   25,   26,   27,   28
   29,   30,   31,   32,   33,   34,   35,   36,   37,   38,   39,   40,   97,   98,   99,  100
  101,  102,  103,  104,  105,  106,  107,  108,  109,  110,  111,  112,  113,  114,  115,  116
  117,  118,  119,  120,  121,  122,  123,  124,  125,  126,  127,  128,  129,  130,  131,  132
  133,  134,  135,  136,  137,  138,  139,  140,  141,  142,  143,  144,  145,  146,  147,  148
  149,  150,  371,  372,  373,  374,  375,  376,  377,  378,  379,  380,  381,  382,  383,  384
  385,  386,  387,  388,  389,  390,  391,  392,  393,  394,  395,  396,  397,  398,  399,  400
  401,  402,  403,  404,  405,  406,  407,  408,  409,  410,  411,  412,  413,  414,  415,  416
  417,  418,  419,  420,  421,  422,  423,  424,  425,  426,  427,  428,  429,  430,  431,  432
  433,  434,  435,  436,  437,  438,  439,  440,  441,  442,  443,  444,  445,  446,  447,  448
  449,  450,  451,  452,  453,  454,  455,  456,  457,  458,  459,  460,  461,  462,  463,  464
  465,  466,  467,  468,  469,  470,  471,  472,  473,  474,  475,  476,  477,  478,  479,  480
  481,  482,  483,  484,  485,  486,  487,  488,  489,  490,  491,  492,  493,  494,  495,  496
  497,  498,  499,  500,  501,  502,  503,  504,  505,  506,  507,  508,  509,  510,  511,  512
  513,  514,  515,  516,  517,  518,  519,  520,  521,  522,  523,  524,  525,  526,  527,  528
  529,  530,  531,  532,  533,  534,  535,  536,  537,  538,  539,  540,  541,  542,  543,  544
  545,  546,  547,  548,  549,  550,  551,  552,  553,  554,  555,  556,  557,  558,  559,  560
  561,  562,  563,  564,  565,  566,  567,  568,  569,  570,  571,  572,  573,  574,  575,  576
  577,  578,  579,  580,  581,  582,  583,  584,  585,  586,  587,  588,  589,  590,  591,  592
  593,  594,  595,  596,  597,  598,  599,  600,  601,  602,  603,  604,  605,  606,  607,  608
** ... 76 like lines cut
*Elset, elset=Set-3, generate
 266,  748,    1
*Nset, nset=Set-4
    1,    2,   15,   16,   17,   18,   19,   20,   21,   22,   23,   24,   25,   26,   27,   28
   29,   30,   31,   32,   33,   34,   35,   36,   37,   38,   39,   40,   97,   98,   99,  100
  101,  102,  103,  104,  105,  106,  107,  108,  109,  110,  111,  112,  113,  114,  115,  116
  117,  118,  119,  120,  121,  122,  123,  124,  125,  126,  127,  128,  129,  130,  131,  132
  133,  134,  135,  136,  137,  138,  139,  140,  141,  142,  143,  144,  145,  146,  147,  148
  149,  150,  371,  372,  373,  374,  375,  376,  377,  378,  379,  380,  381,  382,  383,  384
  385,  386,  387,  388,  389,  390,  391,  392,  393,  394,  395,  396,  397,  398,  399,  400
  401,  402,  403,  404,  405,  406,  407,  408,  409,  410,  411,  412,  413,  414,  415,  416
  417,  418,  419,  420,  421,  422,  423,  424,  425,  426,  427,  428,  429,  430,  431,  432
  433,  434,  435,  436,  437,  438,  439,  440,  441,  442,  443,  444,  445,  446,  447,  448
  449,  450,  451,  452,  453,  454,  455,  456,  457,  458,  459,  460,  461,  462,  463,  464
  465,  466,  467,  468,  469,  470,  471,  472,  473,  474,  475,  476,  477,  478,  479,  480
  481,  482,  483,  484,  485,  486,  487,  488,  489,  490,  491,  492,  493,  494,  495,  496
  497,  498,  499,  500,  501,  502,  503,  504,  505,  506,  507,  508,  509,  510,  511,  512
  513,  514,  515,  516,  517,  518,  519,  520,  521,  522,  523,  524,  525,  526,  527,  528
  529,  530,  531,  532,  533,  534,  535,  536,  537,  538,  539,  540,  541,  542,  543,  544
  545,  546,  547,  548,  549,  550,  551,  552,  553,  554,  555,  556,  557,  558,  559,  560
  561,  562,  563,  564,  565,  566,  567,  568,  569,  570,  571,  572,  573,  574,  575,  576
  577,  578,  579,  580,  581,  582,  583,  584,  585,  586,  587,  588,  589,  590,  591,  592
  593,  594,  595,  596,  597,  598,  599,  600,  601,  602,  603,  604,  605,  606,  607,  608
** ... 76 like lines cut
*Elset, elset=Set-4, generate
 266,  748,    1
*Nset, nset=Set-5
    1,    2,    3,    4,    5,    6,    7,    8,    9,   10,   11,   12,   13,   14,   19,   20
   21,   22,   23,   24,   25,   26,   27,   28,   29,   30,   31,   32,   33,   34,   35,   36
   37,   38,   39,   40,   41,   42,   43,   44,   45,   46,   47,   48,   49,   50,   51,   52
   53,   54,   55,   56,   57,   58,   59,   60,   61,   62,   63,   64,   65,   66,   67,   68
   69,   70,   71,   72,   73,   74,   75,   76,   77,   78,   79,   80,   81,   82,   83,   84
   85,   86,   87,   88,   89,   90,   91,   92,   93,   94,   95,   96,  151,  152,  153,  154
  155,  156,  157,  158,  159,  160,  161,  162,  163,  164,  165,  166,  167,  168,  169,  170
  171,  172,  173,  174,  175,  176,  177,  178,  179,  180,  181,  182,  183,  184,  185,  186
  187,  188,  189,  190,  191,  192,  193,  194,  195,  196,  197,  198,  199,  200,  201,  202
  203,  204,  205,  206,  207,  208,  209,  210,  211,  212,  213,  214,  215,  216,  217,  218
  219,  220,  221,  222,  223,  224,  225,  226,  227,  228,  229,  230,  231,  232,  233,  234
  235,  236,  237,  238,  239,  240,  241,  242,  243,  244,  245,  246,  247,  248,  249,  250
  251,  252,  253,  254,  255,  256,  257,  258,  259,  260,  261,  262,  263,  264,  265,  266
  267,  268,  269,  270,  271,  272,  273,  274,  275,  276,  277,  278,  279,  280,  281,  282
  283,  284,  285,  286,  287,  288,  289,  290,  291,  292,  293,  294,  295,  296,  297,  298
  299,  300,  301,  302,  303,  304,  305,  306,  307,  308,  309,  310,  311,  312,  313,  314
  315,  316,  317,  318,  319,  320,  321,  322,  323,  324,  325,  326,  327,  328,  329,  330
  331,  332,  333,  334,  335,  336,  337,  338,  339,  340,  341,  342,  343,  344,  345,  346
  347,  348,  349,  350,  351,  352,  353,  354,  355,  356,  357,  358,  359,  360,  361,  362
  363,  364,  365,  366,  367,  368,  369,  370,  814,  815,  816,  817,  818,  819,  820,  821
** ... 36 like lines cut
*Elset, elset=Set-5, generate
   1,  265,    1
*Nset, nset=Set-6
    1,    2,    3,    4,    5,    6,    7,    8,    9,   10,   11,   12,   13,   14,   19,   20
   21,   22,   23,   24,   25,   26,   27,   28,   29,   30,   31,   32,   33,   34,   35,   36
   37,   38,   39,   40,   41,   42,   43,   44,   45,   46,   47,   48,   49,   50,   51,   52
   53,   54,   55,   56,   57,   58,   59,   60,   61,   62,   63,   64,   65,   66,   67,   68
   69,   70,   71,   72,   73,   74,   75,   76,   77,   78,   79,   80,   81,   82,   83,   84
   85,   86,   87,   88,   89,   90,   91,   92,   93,   94,   95,   96,  151,  152,  153,  154
  155,  156,  157,  158,  159,  160,  161,  162,  163,  164,  165,  166,  167,  168,  169,  170
  171,  172,  173,  174,  175,  176,  177,  178,  179,  180,  181,  182,  183,  184,  185,  186
  187,  188,  189,  190,  191,  192,  193,  194,  195,  196,  197,  198,  199,  200,  201,  202
  203,  204,  205,  206,  207,  208,  209,  210,  211,  212,  213,  214,  215,  216,  217,  218
  219,  220,  221,  222,  223,  224,  225,  226,  227,  228,  229,  230,  231,  232,  233,  234
  235,  236,  237,  238,  239,  240,  241,  242,  243,  244,  245,  246,  247,  248,  249,  250
  251,  252,  253,  254,  255,  256,  257,  258,  259,  260,  261,  262,  263,  264,  265,  266
  267,  268,  269,  270,  271,  272,  273,  274,  275,  276,  277,  278,  279,  280,  281,  282
  283,  284,  285,  286,  287,  288,  289,  290,  291,  292,  293,  294,  295,  296,  297,  298
  299,  300,  301,  302,  303,  304,  305,  306,  307,  308,  309,  310,  311,  312,  313,  314
  315,  316,  317,  318,  319,  320,  321,  322,  323,  324,  325,  326,  327,  328,  329,  330
  331,  332,  333,  334,  335,  336,  337,  338,  339,  340,  341,  342,  343,  344,  345,  346
  347,  348,  349,  350,  351,  352,  353,  354,  355,  356,  357,  358,  359,  360,  361,  362
  363,  364,  365,  366,  367,  368,  369,  370,  814,  815,  816,  817,  818,  819,  820,  821
** ... 36 like lines cut
*Elset, elset=Set-6, generate
   1,  265,    1
*Nset, nset=Set-7, generate
    1,  2373,     1
*Elset, elset=Set-7, generate
   1,  748,    1
*Nset, nset=Set-8
    1,    2,   15,   16,   17,   18,   19,   20,   21,   22,   23,   24,   25,   26,   27,   28
   29,   30,   31,   32,   33,   34,   35,   36,   37,   38,   39,   40,   97,   98,   99,  100
  101,  102,  103,  104,  105,  106,  107,  108,  109,  110,  111,  112,  113,  114,  115,  116
  117,  118,  119,  120,  121,  122,  123,  124,  125,  126,  127,  128,  129,  130,  131,  132
  133,  134,  135,  136,  137,  138,  139,  140,  141,  142,  143,  144,  145,  146,  147,  148
  149,  150,  371,  372,  373,  374,  375,  376,  377,  378,  379,  380,  381,  382,  383,  384
  385,  386,  387,  388,  389,  390,  391,  392,  393,  394,  395,  396,  397,  398,  399,  400
  401,  402,  403,  404,  405,  406,  407,  408,  409,  410,  411,  412,  413,  414,  415,  416
  417,  418,  419,  420,  421,  422,  423,  424,  425,  426,  427,  428,  429,  430,  431,  432
  433,  434,  435,  436,  437,  438,  439,  440,  441,  442,  443,  444,  445,  446,  447,  448
  449,  450,  451,  452,  453,  454,  455,  456,  457,  458,  459,  460,  461,  462,  463,  464
  465,  466,  467,  468,  469,  470,  471,  472,  473,  474,  475,  476,  477,  478,  479,  480
  481,  482,  483,  484,  485,  486,  487,  488,  489,  490,  491,  492,  493,  494,  495,  496
  497,  498,  499,  500,  501,  502,  503,  504,  505,  506,  507,  508,  509,  510,  511,  512
  513,  514,  515,  516,  517,  518,  519,  520,  521,  522,  523,  524,  525,  526,  527,  528
  529,  530,  531,  532,  533,  534,  535,  536,  537,  538,  539,  540,  541,  542,  543,  544
  545,  546,  547,  548,  549,  550,  551,  552,  553,  554,  555,  556,  557,  558,  559,  560
  561,  562,  563,  564,  565,  566,  567,  568,  569,  570,  571,  572,  573,  574,  575,  576
  577,  578,  579,  580,  581,  582,  583,  584,  585,  586,  587,  588,  589,  590,  591,  592
  593,  594,  595,  596,  597,  598,  599,  600,  601,  602,  603,  604,  605,  606,  607,  608
** ... 76 like lines cut
*Elset, elset=Set-8, generate
 266,  748,    1
*Nset, nset=Set-9
    1,    2,    3,    4,    5,    6,    7,    8,    9,   10,   11,   12,   13,   14,   19,   20
   21,   22,   23,   24,   25,   26,   27,   28,   29,   30,   31,   32,   33,   34,   35,   36
   37,   38,   39,   40,   41,   42,   43,   44,   45,   46,   47,   48,   49,   50,   51,   52
   53,   54,   55,   56,   57,   58,   59,   60,   61,   62,   63,   64,   65,   66,   67,   68
   69,   70,   71,   72,   73,   74,   75,   76,   77,   78,   79,   80,   81,   82,   83,   84
   85,   86,   87,   88,   89,   90,   91,   92,   93,   94,   95,   96,  151,  152,  153,  154
  155,  156,  157,  158,  159,  160,  161,  162,  163,  164,  165,  166,  167,  168,  169,  170
  171,  172,  173,  174,  175,  176,  177,  178,  179,  180,  181,  182,  183,  184,  185,  186
  187,  188,  189,  190,  191,  192,  193,  194,  195,  196,  197,  198,  199,  200,  201,  202
  203,  204,  205,  206,  207,  208,  209,  210,  211,  212,  213,  214,  215,  216,  217,  218
  219,  220,  221,  222,  223,  224,  225,  226,  227,  228,  229,  230,  231,  232,  233,  234
  235,  236,  237,  238,  239,  240,  241,  242,  243,  244,  245,  246,  247,  248,  249,  250
  251,  252,  253,  254,  255,  256,  257,  258,  259,  260,  261,  262,  263,  264,  265,  266
  267,  268,  269,  270,  271,  272,  273,  274,  275,  276,  277,  278,  279,  280,  281,  282
  283,  284,  285,  286,  287,  288,  289,  290,  291,  292,  293,  294,  295,  296,  297,  298
  299,  300,  301,  302,  303,  304,  305,  306,  307,  308,  309,  310,  311,  312,  313,  314
  315,  316,  317,  318,  319,  320,  321,  322,  323,  324,  325,  326,  327,  328,  329,  330
  331,  332,  333,  334,  335,  336,  337,  338,  339,  340,  341,  342,  343,  344,  345,  346
  347,  348,  349,  350,  351,  352,  353,  354,  355,  356,  357,  358,  359,  360,  361,  362
  363,  364,  365,  366,  367,  368,  369,  370,  814,  815,  816,  817,  818,  819,  820,  821
** ... 36 like lines cut
*Elset, elset=Set-9, generate
   1,  265,    1
*Nset, nset=Set-10
    1,    2,    3,    4,    5,    6,    7,    8,    9,   10,   11,   12,   13,   14,   19,   20
   21,   22,   23,   24,   25,   26,   27,   28,   29,   30,   31,   32,   33,   34,   35,   36
   37,   38,   39,   40,   41,   42,   43,   44,   45,   46,   47,   48,   49,   50,   51,   52
   53,   54,   55,   56,   57,   58,   59,   60,   61,   62,   63,   64,   65,   66,   67,   68
   69,   70,   71,   72,   73,   74,   75,   76,   77,   78,   79,   80,   81,   82,   83,   84
   85,   86,   87,   88,   89,   90,   91,   92,   93,   94,   95,   96,  151,  152,  153,  154
  155,  156,  157,  158,  159,  160,  161,  162,  163,  164,  165,  166,  167,  168,  169,  170
  171,  172,  173,  174,  175,  176,  177,  178,  179,  180,  181,  182,  183,  184,  185,  186
  187,  188,  189,  190,  191,  192,  193,  194,  195,  196,  197,  198,  199,  200,  201,  202
  203,  204,  205,  206,  207,  208,  209,  210,  211,  212,  213,  214,  215,  216,  217,  218
  219,  220,  221,  222,  223,  224,  225,  226,  227,  228,  229,  230,  231,  232,  233,  234
  235,  236,  237,  238,  239,  240,  241,  242,  243,  244,  245,  246,  247,  248,  249,  250
  251,  252,  253,  254,  255,  256,  257,  258,  259,  260,  261,  262,  263,  264,  265,  266
  267,  268,  269,  270,  271,  272,  273,  274,  275,  276,  277,  278,  279,  280,  281,  282
  283,  284,  285,  286,  287,  288,  289,  290,  291,  292,  293,  294,  295,  296,  297,  298
  299,  300,  301,  302,  303,  304,  305,  306,  307,  308,  309,  310,  311,  312,  313,  314
  315,  316,  317,  318,  319,  320,  321,  322,  323,  324,  325,  326,  327,  328,  329,  330
  331,  332,  333,  334,  335,  336,  337,  338,  339,  340,  341,  342,  343,  344,  345,  346
  347,  348,  349,  350,  351,  352,  353,  354,  355,  356,  357,  358,  359,  360,  361,  362
  363,  364,  365,  366,  367,  368,  369,  370,  814,  815,  816,  817,  818,  819,  820,  821
** ... 36 like lines cut
*Elset, elset=Set-10, generate
   1,  265,    1
*Nset, nset=Set-11
    1,    2,    3,    4,    5,    6,    7,    8,    9,   10,   11,   12,   13,   14,   19,   20
   21,   22,   23,   24,   25,   26,   27,   28,   29,   30,   31,   32,   33,   34,   35,   36
   37,   38,   39,   40,   41,   42,   43,   44,   45,   46,   47,   48,   49,   50,   51,   52
   53,   54,   55,   56,   57,   58,   59,   60,   61,   62,   63,   64,   65,   66,   67,   68
   69,   70,   71,   72,   73,   74,   75,   76,   77,   78,   79,   80,   81,   82,   83,   84
   85,   86,   87,   88,   89,   90,   91,   92,   93,   94,   95,   96,  151,  152,  153,  154
  155,  156,  157,  158,  159,  160,  161,  162,  163,  164,  165,  166,  167,  168,  169,  170
  171,  172,  173,  174,  175,  176,  177,  178,  179,  180,  181,  182,  183,  184,  185,  186
  187,  188,  189,  190,  191,  192,  193,  194,  195,  196,  197,  198,  199,  200,  201,  202
  203,  204,  205,  206,  207,  208,  209,  210,  211,  212,  213,  214,  215,  216,  217,  218
  219,  220,  221,  222,  223,  224,  225,  226,  227,  228,  229,  230,  231,  232,  233,  234
  235,  236,  237,  238,  239,  240,  241,  242,  243,  244,  245,  246,  247,  248,  249,  250
  251,  252,  253,  254,  255,  256,  257,  258,  259,  260,  261,  262,  263,  264,  265,  266
  267,  268,  269,  270,  271,  272,  273,  274,  275,  276,  277,  278,  279,  280,  281,  282
  283,  284,  285,  286,  287,  288,  289,  290,  291,  292,  293,  294,  295,  296,  297,  298
  299,  300,  301,  302,  303,  304,  305,  306,  307,  308,  309,  310,  311,  312,  313,  314
  315,  316,  317,  318,  319,  320,  321,  322,  323,  324,  325,  326,  327,  328,  329,  330
  331,  332,  333,  334,  335,  336,  337,  338,  339,  340,  341,  342,  343,  344,  345,  346
  347,  348,  349,  350,  351,  352,  353,  354,  355,  356,  357,  358,  359,  360,  361,  362
  363,  364,  365,  366,  367,  368,  369,  370,  814,  815,  816,  817,  818,  819,  820,  821
** ... 36 like lines cut
*Elset, elset=Set-11, generate
   1,  265,    1
*Nset, nset=Set-12
    1,    2,    3,    4,    5,    6,    7,    8,    9,   10,   11,   12,   13,   14,   19,   20
   21,   22,   23,   24,   25,   26,   27,   28,   29,   30,   31,   32,   33,   34,   35,   36
   37,   38,   39,   40,   41,   42,   43,   44,   45,   46,   47,   48,   49,   50,   51,   52
   53,   54,   55,   56,   57,   58,   59,   60,   61,   62,   63,   64,   65,   66,   67,   68
   69,   70,   71,   72,   73,   74,   75,   76,   77,   78,   79,   80,   81,   82,   83,   84
   85,   86,   87,   88,   89,   90,   91,   92,   93,   94,   95,   96,  151,  152,  153,  154
  155,  156,  157,  158,  159,  160,  161,  162,  163,  164,  165,  166,  167,  168,  169,  170
  171,  172,  173,  174,  175,  176,  177,  178,  179,  180,  181,  182,  183,  184,  185,  186
  187,  188,  189,  190,  191,  192,  193,  194,  195,  196,  197,  198,  199,  200,  201,  202
  203,  204,  205,  206,  207,  208,  209,  210,  211,  212,  213,  214,  215,  216,  217,  218
  219,  220,  221,  222,  223,  224,  225,  226,  227,  228,  229,  230,  231,  232,  233,  234
  235,  236,  237,  238,  239,  240,  241,  242,  243,  244,  245,  246,  247,  248,  249,  250
  251,  252,  253,  254,  255,  256,  257,  258,  259,  260,  261,  262,  263,  264,  265,  266
  267,  268,  269,  270,  271,  272,  273,  274,  275,  276,  277,  278,  279,  280,  281,  282
  283,  284,  285,  286,  287,  288,  289,  290,  291,  292,  293,  294,  295,  296,  297,  298
  299,  300,  301,  302,  303,  304,  305,  306,  307,  308,  309,  310,  311,  312,  313,  314
  315,  316,  317,  318,  319,  320,  321,  322,  323,  324,  325,  326,  327,  328,  329,  330
  331,  332,  333,  334,  335,  336,  337,  338,  339,  340,  341,  342,  343,  344,  345,  346
  347,  348,  349,  350,  351,  352,  353,  354,  355,  356,  357,  358,  359,  360,  361,  362
  363,  364,  365,  366,  367,  368,  369,  370,  814,  815,  816,  817,  818,  819,  820,  821
** ... 36 like lines cut
*Elset, elset=Set-12, generate
   1,  265,    1
*Nset, nset=Set-13, generate
    1,  2373,     1
*Elset, elset=Set-13, generate
   1,  748,    1
*Nset, nset=Set-14
    1,    2,    3,    4,    5,    6,    7,    8,    9,   10,   11,   12,   13,   14,   19,   20
   21,   22,   23,   24,   25,   26,   27,   28,   29,   30,   31,   32,   33,   34,   35,   36
   37,   38,   39,   40,   41,   42,   43,   44,   45,   46,   47,   48,   49,   50,   51,   52
   53,   54,   55,   56,   57,   58,   59,   60,   61,   62,   63,   64,   65,   66,   67,   68
   69,   70,   71,   72,   73,   74,   75,   76,   77,   78,   79,   80,   81,   82,   83,   84
   85,   86,   87,   88,   89,   90,   91,   92,   93,   94,   95,   96,  151,  152,  153,  154
  155,  156,  157,  158,  159,  160,  161,  162,  163,  164,  165,  166,  167,  168,  169,  170
  171,  172,  173,  174,  175,  176,  177,  178,  179,  180,  181,  182,  183,  184,  185,  186
  187,  188,  189,  190,  191,  192,  193,  194,  195,  196,  197,  198,  199,  200,  201,  202
  203,  204,  205,  206,  207,  208,  209,  210,  211,  212,  213,  214,  215,  216,  217,  218
  219,  220,  221,  222,  223,  224,  225,  226,  227,  228,  229,  230,  231,  232,  233,  234
  235,  236,  237,  238,  239,  240,  241,  242,  243,  244,  245,  246,  247,  248,  249,  250
  251,  252,  253,  254,  255,  256,  257,  258,  259,  260,  261,  262,  263,  264,  265,  266
  267,  268,  269,  270,  271,  272,  273,  274,  275,  276,  277,  278,  279,  280,  281,  282
  283,  284,  285,  286,  287,  288,  289,  290,  291,  292,  293,  294,  295,  296,  297,  298
  299,  300,  301,  302,  303,  304,  305,  306,  307,  308,  309,  310,  311,  312,  313,  314
  315,  316,  317,  318,  319,  320,  321,  322,  323,  324,  325,  326,  327,  328,  329,  330
  331,  332,  333,  334,  335,  336,  337,  338,  339,  340,  341,  342,  343,  344,  345,  346
  347,  348,  349,  350,  351,  352,  353,  354,  355,  356,  357,  358,  359,  360,  361,  362
  363,  364,  365,  366,  367,  368,  369,  370,  814,  815,  816,  817,  818,  819,  820,  821
** ... 36 like lines cut
*Elset, elset=Set-14, generate
   1,  265,    1
*Nset, nset=Set-15
    1,    2,   15,   16,   17,   18,   19,   20,   21,   22,   23,   24,   25,   26,   27,   28
   29,   30,   31,   32,   33,   34,   35,   36,   37,   38,   39,   40,   97,   98,   99,  100
  101,  102,  103,  104,  105,  106,  107,  108,  109,  110,  111,  112,  113,  114,  115,  116
  117,  118,  119,  120,  121,  122,  123,  124,  125,  126,  127,  128,  129,  130,  131,  132
  133,  134,  135,  136,  137,  138,  139,  140,  141,  142,  143,  144,  145,  146,  147,  148
  149,  150,  371,  372,  373,  374,  375,  376,  377,  378,  379,  380,  381,  382,  383,  384
  385,  386,  387,  388,  389,  390,  391,  392,  393,  394,  395,  396,  397,  398,  399,  400
  401,  402,  403,  404,  405,  406,  407,  408,  409,  410,  411,  412,  413,  414,  415,  416
  417,  418,  419,  420,  421,  422,  423,  424,  425,  426,  427,  428,  429,  430,  431,  432
  433,  434,  435,  436,  437,  438,  439,  440,  441,  442,  443,  444,  445,  446,  447,  448
  449,  450,  451,  452,  453,  454,  455,  456,  457,  458,  459,  460,  461,  462,  463,  464
  465,  466,  467,  468,  469,  470,  471,  472,  473,  474,  475,  476,  477,  478,  479,  480
  481,  482,  483,  484,  485,  486,  487,  488,  489,  490,  491,  492,  493,  494,  495,  496
  497,  498,  499,  500,  501,  502,  503,  504,  505,  506,  507,  508,  509,  510,  511,  512
  513,  514,  515,  516,  517,  518,  519,  520,  521,  522,  523,  524,  525,  526,  527,  528
  529,  530,  531,  532,  533,  534,  535,  536,  537,  538,  539,  540,  541,  542,  543,  544
  545,  546,  547,  548,  549,  550,  551,  552,  553,  554,  555,  556,  557,  558,  559,  560
  561,  562,  563,  564,  565,  566,  567,  568,  569,  570,  571,  572,  573,  574,  575,  576
  577,  578,  579,  580,  581,  582,  583,  584,  585,  586,  587,  588,  589,  590,  591,  592
  593,  594,  595,  596,  597,  598,  599,  600,  601,  602,  603,  604,  605,  606,  607,  608
** ... 76 like lines cut
*Elset, elset=Set-15, generate
 266,  748,    1
*Nset, nset=Set-16
    1,    2,   15,   16,   17,   18,   19,   20,   21,   22,   23,   24,   25,   26,   27,   28
   29,   30,   31,   32,   33,   34,   35,   36,   37,   38,   39,   40,   97,   98,   99,  100
  101,  102,  103,  104,  105,  106,  107,  108,  109,  110,  111,  112,  113,  114,  115,  116
  117,  118,  119,  120,  121,  122,  123,  124,  125,  126,  127,  128,  129,  130,  131,  132
  133,  134,  135,  136,  137,  138,  139,  140,  141,  142,  143,  144,  145,  146,  147,  148
  149,  150,  371,  372,  373,  374,  375,  376,  377,  378,  379,  380,  381,  382,  383,  384
  385,  386,  387,  388,  389,  390,  391,  392,  393,  394,  395,  396,  397,  398,  399,  400
  401,  402,  403,  404,  405,  406,  407,  408,  409,  410,  411,  412,  413,  414,  415,  416
  417,  418,  419,  420,  421,  422,  423,  424,  425,  426,  427,  428,  429,  430,  431,  432
  433,  434,  435,  436,  437,  438,  439,  440,  441,  442,  443,  444,  445,  446,  447,  448
  449,  450,  451,  452,  453,  454,  455,  456,  457,  458,  459,  460,  461,  462,  463,  464
  465,  466,  467,  468,  469,  470,  471,  472,  473,  474,  475,  476,  477,  478,  479,  480
  481,  482,  483,  484,  485,  486,  487,  488,  489,  490,  491,  492,  493,  494,  495,  496
  497,  498,  499,  500,  501,  502,  503,  504,  505,  506,  507,  508,  509,  510,  511,  512
  513,  514,  515,  516,  517,  518,  519,  520,  521,  522,  523,  524,  525,  526,  527,  528
  529,  530,  531,  532,  533,  534,  535,  536,  537,  538,  539,  540,  541,  542,  543,  544
  545,  546,  547,  548,  549,  550,  551,  552,  553,  554,  555,  556,  557,  558,  559,  560
  561,  562,  563,  564,  565,  566,  567,  568,  569,  570,  571,  572,  573,  574,  575,  576
  577,  578,  579,  580,  581,  582,  583,  584,  585,  586,  587,  588,  589,  590,  591,  592
  593,  594,  595,  596,  597,  598,  599,  600,  601,  602,  603,  604,  605,  606,  607,  608
** ... 76 like lines cut
*Elset, elset=Set-16, generate
 266,  748,    1
*Nset, nset=Set-17
    1,    2,    3,    4,    5,    6,    7,    8,    9,   10,   11,   12,   13,   14,   19,   20
   21,   22,   23,   24,   25,   26,   27,   28,   29,   30,   31,   32,   33,   34,   35,   36
   37,   38,   39,   40,   41,   42,   43,   44,   45,   46,   47,   48,   49,   50,   51,   52
   53,   54,   55,   56,   57,   58,   59,   60,   61,   62,   63,   64,   65,   66,   67,   68
   69,   70,   71,   72,   73,   74,   75,   76,   77,   78,   79,   80,   81,   82,   83,   84
   85,   86,   87,   88,   89,   90,   91,   92,   93,   94,   95,   96,  151,  152,  153,  154
  155,  156,  157,  158,  159,  160,  161,  162,  163,  164,  165,  166,  167,  168,  169,  170
  171,  172,  173,  174,  175,  176,  177,  178,  179,  180,  181,  182,  183,  184,  185,  186
  187,  188,  189,  190,  191,  192,  193,  194,  195,  196,  197,  198,  199,  200,  201,  202
  203,  204,  205,  206,  207,  208,  209,  210,  211,  212,  213,  214,  215,  216,  217,  218
  219,  220,  221,  222,  223,  224,  225,  226,  227,  228,  229,  230,  231,  232,  233,  234
  235,  236,  237,  238,  239,  240,  241,  242,  243,  244,  245,  246,  247,  248,  249,  250
  251,  252,  253,  254,  255,  256,  257,  258,  259,  260,  261,  262,  263,  264,  265,  266
  267,  268,  269,  270,  271,  272,  273,  274,  275,  276,  277,  278,  279,  280,  281,  282
  283,  284,  285,  286,  287,  288,  289,  290,  291,  292,  293,  294,  295,  296,  297,  298
  299,  300,  301,  302,  303,  304,  305,  306,  307,  308,  309,  310,  311,  312,  313,  314
  315,  316,  317,  318,  319,  320,  321,  322,  323,  324,  325,  326,  327,  328,  329,  330
  331,  332,  333,  334,  335,  336,  337,  338,  339,  340,  341,  342,  343,  344,  345,  346
  347,  348,  349,  350,  351,  352,  353,  354,  355,  356,  357,  358,  359,  360,  361,  362
  363,  364,  365,  366,  367,  368,  369,  370,  814,  815,  816,  817,  818,  819,  820,  821
** ... 36 like lines cut
*Elset, elset=Set-17, generate
   1,  265,    1
** Section: steel-sect
*Solid Section, elset=Set-17, material=stainless-steel-316
22.5,
** Section: CoCr-imp-section
*Solid Section, elset=Set-16, material=Co-Cr
22.5,
*End Instance
**  
*Instance, name=bone-base-1, part=bone-base
*Node
      1,   15.7593384,   39.7894211
      2,   18.4082909,   42.3616104
      3,   12.2273998,   36.3598366
      4,     15.01474,   33.4893112
      5,   13.5452051,   32.0897331
      6,   11.9280968,   33.7876701
      7,    9.8320837,   31.7914371
      8,   7.73607159,   29.7952042
      9,   9.35317993,   28.0972672
     10,   12.5394802,   24.7517033
     11,   15.7257795,   21.4061413
     12,   18.9120789,   18.0605774
     13,   21.0362797,   15.8302021
     14,     24.22258,   12.4846392
     15,   27.4088783,   9.13907623
     16,   24.0860386,   5.97441673
     17,   21.8708115,   3.86464405
     18,   18.5479698,  0.699984729
     19,   15.2251291,  -2.46467447
     20,   12.0388288,  0.880888581
** ... 3484 like lines cut
*Element, type=CPS8R
   1,  533,  582,  386,  387, 1203, 1204, 1205, 1206
   2,  390,  387,  271,  272, 1207, 1208, 1209, 1210
   3,  669,  670, 1102,  640, 1211, 1212, 1213, 1214
   4,  670, 1117,  758, 1102, 1215, 1216, 1217, 1212
   5,  521,   96,  631,  599, 1218, 1219, 1220, 1221
   6,  376,  417,  416,   85, 1222, 1223, 1224, 1225
   7,  377,   93,  420,   86, 1226, 1227, 1228, 1229
   8,  422,  421,   92, 1023, 1230, 1231, 1232, 1233
   9,   92, 1102,  716, 1023, 1234, 1235, 1236, 1232
  10,  387,  386,  270,  271, 1205, 1237, 1238, 1208
  11,  533,  393,  541,  627, 1239, 1240, 1241, 1242
  12,  275,   99, 1061,    5, 1243, 1244, 1245, 1246
  13,  276,   99,  275,    6, 1247, 1243, 1248, 1249
  14,  382,  566,  578,  398, 1250, 1251, 1252, 1253
  15,  528,  498,  493,  997, 1254, 1255, 1256, 1257
  16,  282,   11,  504,  495, 1258, 1259, 1260, 1261
  17,  854, 1013,  565,  119, 1262, 1263, 1264, 1265
  18,  123,  851,  802,  827, 1266, 1267, 1268, 1269
  19,  494,  502,  520,  126, 1270, 1271, 1272, 1273
  20,  459,  367,   77,  460, 1274, 1275, 1276, 1277
** ... 1081 like lines cut
*Nset, nset=set-osso, generate
    1,  3504,     1
*Elset, elset=set-osso, generate
    1,  1101,     1
** Section: osso-section
*Solid Section, elset=set-osso, material=osso-cortical
22.5,
*End Instance
**  
*Node
      1,    4.3951292,   21.2597332,           0.
*Node
      2,   30.7165146,   36.0992699,           0.
*Node
      3,  -3.64918685,   45.5024338,           0.
*Nset, nset=Set-84
 3,
*Nset, nset=Set-85
 2,
*Nset, nset=Set-86, instance=bone-base-1
   50,   51,   52,   53,   54,   55,   56,   57,   58,  338,  339,  340,  341,  342,  343,  344
  345,  346,  347, 1433, 1491, 1551, 1943, 1961, 1979, 1990, 2002, 2650, 2651, 2654, 2656, 2659
 2660, 2663, 2668, 2730, 2733
*Elset, elset=Set-86, instance=bone-base-1
  62,  78,  94, 201, 207, 212, 215, 218, 441, 442, 443, 444, 445, 446, 447, 449
 487, 490
*Nset, nset=m_Set-80
 3,
*Nset, nset=m_Set-81
 2,
*Nset, nset=m_Set-82
 1,
*Nset, nset=m_Set-83
 1,
*Nset, nset=pontos-base-sem-cortical, instance=bone-base-1
 888,
*Nset, nset=pontos-base-sem-cortical, instance=implante-2-Copy4-1
 1348, 2345
*Elset, elset=_m_Surf-19_S2, internal, instance=implante-2-Copy4-1
 281, 302, 316, 332, 335
*Elset, elset=_m_Surf-19_S4, internal, instance=implante-2-Copy4-1
 303, 305, 313, 333, 334
*Elset, elset=_m_Surf-19_S3, internal, instance=implante-2-Copy4-1
 306,
*Elset, elset=_m_Surf-19_S1, internal, instance=implante-2-Copy4-1
 307,
*Surface, type=ELEMENT, name=m_Surf-19
_m_Surf-19_S2, S2
_m_Surf-19_S4, S4
_m_Surf-19_S3, S3
_m_Surf-19_S1, S1
*Elset, elset=_m_Surf-21_S3, internal, instance=implante-2-Copy4-1
   1,   6,  13,  18,  29,  30,  34,  35,  39,  40,  43,  44,  47,  48,  51,  52
  53,  55,  56,  59,  61,  66,  78,  83,  84,  89,  93,  99, 101
*Elset, elset=_m_Surf-21_S4, internal, instance=implante-2-Copy4-1
   2,  23,  27,  28,  29,  44,  52,  67, 130
*Elset, elset=_m_Surf-21_S1, internal, instance=implante-2-Copy4-1
   3,   4,   8,  14,  19,  28,  32,  37,  38,  45,  46,  50,  58,  60,  62,  65
  68,  70,  73,  82,  85,  87, 100, 102, 103, 108
*Elset, elset=_m_Surf-21_S2, internal, instance=implante-2-Copy4-1
  5,  7, 25, 26, 66
*Surface, type=ELEMENT, name=m_Surf-21
_m_Surf-21_S3, S3
_m_Surf-21_S4, S4
_m_Surf-21_S2, S2
_m_Surf-21_S1, S1
*Elset, elset=_m_Surf-27_S2, internal, instance=implante-2-Copy4-1
 281, 302, 316, 332, 335
*Elset, elset=_m_Surf-27_S4, internal, instance=implante-2-Copy4-1
 303, 305, 313, 333, 334
*Elset, elset=_m_Surf-27_S3, internal, instance=implante-2-Copy4-1
 306,
*Elset, elset=_m_Surf-27_S1, internal, instance=implante-2-Copy4-1
 307,
*Surface, type=ELEMENT, name=m_Surf-27
_m_Surf-27_S2, S2
_m_Surf-27_S4, S4
_m_Surf-27_S3, S3
_m_Surf-27_S1, S1
*Elset, elset=_m_Surf-29_S3, internal, instance=implante-2-Copy4-1
   1,   6,  13,  18,  29,  30,  34,  35,  39,  40,  43,  44,  47,  48,  51,  52
  53,  55,  56,  59,  61,  66,  78,  83,  84,  89,  93,  99, 101
*Elset, elset=_m_Surf-29_S4, internal, instance=implante-2-Copy4-1
   2,  23,  27,  28,  29,  44,  52,  67, 130
*Elset, elset=_m_Surf-29_S1, internal, instance=implante-2-Copy4-1
   3,   4,   8,  14,  19,  28,  32,  37,  38,  45,  46,  50,  58,  60,  62,  65
  68,  70,  73,  82,  85,  87, 100, 102, 103, 108
*Elset, elset=_m_Surf-29_S2, internal, instance=implante-2-Copy4-1
  5,  7, 25, 26, 66
*Surface, type=ELEMENT, name=m_Surf-29
_m_Surf-29_S3, S3
_m_Surf-29_S4, S4
_m_Surf-29_S2, S2
_m_Surf-29_S1, S1
*Elset, elset=_s_Surf-27_S3, internal, instance=bone-base-1
   2,  10, 408, 409, 410
*Elset, elset=_s_Surf-27_S1, internal, instance=bone-base-1
 469, 476
*Elset, elset=_s_Surf-27_S2, internal, instance=bone-base-1
 109,
*Elset, elset=_s_Surf-27_S4, internal, instance=bone-base-1
 130, 430, 431, 432
*Surface, type=ELEMENT, name=s_Surf-27
_s_Surf-27_S3, S3
_s_Surf-27_S1, S1
_s_Surf-27_S2, S2
_s_Surf-27_S4, S4
*Elset, elset=_s_Surf-29_S4, internal, instance=bone-base-1
  12,  13,  35,  36,  48,  80,  81, 103, 284, 410, 411, 475
*Elset, elset=_s_Surf-29_S1, internal, instance=bone-base-1
  16,  37,  38,  39,  41,  45,  97, 101, 102, 108, 266, 278, 328, 336, 405, 413
 414, 415, 425, 427, 428, 545, 550, 551, 553, 555, 559, 571, 573
*Elset, elset=_s_Surf-29_S3, internal, instance=bone-base-1
  13,  40,  96,  99, 103, 105, 130, 280, 282, 338, 416, 422, 423, 424
*Elset, elset=_s_Surf-29_S2, internal, instance=bone-base-1
   34,   46,   47,  133,  135,  283,  412,  413,  419,  420,  426,  427,  429, 1057
*Surface, type=ELEMENT, name=s_Surf-29
_s_Surf-29_S4, S4
_s_Surf-29_S1, S1
_s_Surf-29_S2, S2
_s_Surf-29_S3, S3
*Elset, elset=_s_Surf-31_S3, internal, instance=implante-2-Copy4-1
 294,
*Elset, elset=_s_Surf-31_S1, internal, instance=implante-2-Copy4-1
 297, 308, 315, 339
*Surface, type=ELEMENT, name=s_Surf-31
_s_Surf-31_S3, S3
_s_Surf-31_S1, S1
*Elset, elset=_s_Surf-32_S2, internal, instance=bone-base-1
 256, 257
*Elset, elset=_s_Surf-32_S4, internal, instance=bone-base-1
 263,
*Surface, type=ELEMENT, name=s_Surf-32
_s_Surf-32_S2, S2
_s_Surf-32_S4, S4
*Elset, elset=_s_Surf-33_S3, internal, instance=implante-2-Copy4-1
 294,
*Elset, elset=_s_Surf-33_S1, internal, instance=implante-2-Copy4-1
 297, 308, 315, 339
*Surface, type=ELEMENT, name=s_Surf-33
_s_Surf-33_S3, S3
_s_Surf-33_S1, S1
*Elset, elset=_s_Surf-34_S2, internal, instance=bone-base-1
 256, 257
*Elset, elset=_s_Surf-34_S4, internal, instance=bone-base-1
 263,
*Surface, type=ELEMENT, name=s_Surf-34
_s_Surf-34_S2, S2
_s_Surf-34_S4, S4
** Constraint: Constraint-1
*Tie, name=Constraint-1, adjust=yes, type=SURFACE TO SURFACE
s_Surf-27, m_Surf-27
** Constraint: Constraint-2
*Tie, name=Constraint-2, adjust=yes, type=SURFACE TO SURFACE
s_Surf-29, m_Surf-29
** Constraint: Constraint-3
*Coupling, constraint name=Constraint-3, ref node=m_Set-80, surface=s_Surf-31
*Kinematic
** Constraint: Constraint-4
*Coupling, constraint name=Constraint-4, ref node=m_Set-81, surface=s_Surf-32
*Distributing, weighting method=UNIFORM
** Constraint: Constraint-5
*Coupling, constraint name=Constraint-5, ref node=m_Set-82, surface=s_Surf-33
*Distributing, weighting method=UNIFORM
** Constraint: Constraint-6
*Coupling, constraint name=Constraint-6, ref node=m_Set-83, surface=s_Surf-34
*Distributing, weighting method=UNIFORM
*End Assembly
** 
** MATERIALS
** 
*Material, name=Co-Cr
*Elastic
230000., 0.3
*Material, name=alumina
*Elastic
380000., 0.21
*Material, name=osso-cortical
*Elastic
17000., 0.3
*Material, name=osso-trabecular
*Elastic
1380., 0.3
*Material, name=stainless-steel-316
*Elastic
200000., 0.3
*Material, name=titanium
*Elastic
110000., 0.3
** ----------------------------------------------------------------
** 
** STEP: Step-1
** 
*Step, name=Step-1, nlgeom=NO
*Static
1., 1., 1e-05, 1.
** 
** BOUNDARY CONDITIONS
** 
** Name: BC-1 Type: Symmetry/Antisymmetry/Encastre
*Boundary
Set-86, ENCASTRE
** 
** LOADS
** 
** Name: Load-1   Type: Concentrated force
*Cload
Set-84, 1, 150.
Set-84, 2, -259.
** Name: Load-2   Type: Concentrated force
*Cload
Set-85, 1, -50.
Set-85, 2, 89.
** 
** OUTPUT REQUESTS
** 
*Restart, write, frequency=0
** 
** FIELD OUTPUT: F-Output-1
** 
*Output, field, variable=PRESELECT
** 
** HISTORY OUTPUT: H-Output-1
** 
*Output, history, variable=PRESELECT
*End Step
