*Heading
** Job name: BLAH-reduced-imp Model name: Model-1
** Generated by: Abaqus/CAE 2022
*Preprint, echo=NO, model=NO, history=NO, contact=NO
**
** PARTS
**
*Part, name=BLAH-osso-cut-imp-dim
*End Part
**  
*Part, name=cabeça-implante
*End Part
**  
*Part, name=haste-implante-Copy
*End Part
**  
**
** ASSEMBLY
**
*Assembly, name=Assembly
**  
*Instance, name=cabeça-implante-1, part=cabeça-implante
   18.473149,    32.087275,           0.
*Node
      1,         -35.,       -26.25
      2,  -25.9563351,  -17.5562782
      3,  -6.91689968,  0.746427834
      4,   2.12676692,   9.44015026
      5,  -11.6547604,   13.8552284
      6,  -5.86296129,   13.0198393
      7,  -1.71849251,   11.5639067
      8,  -16.0417366,   13.6298409
      9,  -20.7120342,   12.5574341
     10,  -17.6192436,   13.3670807
     11,  -22.2159405,   12.0135269
     12,  -36.9880486,  -22.2799797
     13,  -38.2818146,  -18.0326786
     14,  -38.8446198,  -13.6285143
     15,  -38.6605034,  -9.19235611
     16,  -37.7346916,  -4.84997511
     17,  -35.3948288,  0.582019329
     18,  -32.8753433,   4.23791695
     19,  -29.7781773,   7.41926336
     20,   -26.191143,    10.035862
** ... 1407 like lines cut
*Element, type=CPS8R
  1,   83,  477,   21,   22,  491,  492,  493,  494
  2,   84,   83,   22,   23,  495,  494,  496,  497
  3,  159,  103,   85,  162,  498,  499,  500,  501
  4,   14,  106,  144,   68,  502,  503,  504,  505
  5,  188,   88,   89,  182,  506,  507,  508,  509
  6,   29,   30,   89,   88,  510,  511,  507,  512
  7,   30,   31,   91,   89,  513,  514,  515,  511
  8,  147,   71,   70,  146,  516,  517,  518,  519
  9,   88,   86,   28,   29,  520,  521,  522,  512
 10,  154,   78,   77,  153,  523,  524,  525,  526
 11,   47,   48,  126,   94,  527,  528,  529,  530
 12,   94,   95,   46,   47,  531,  532,  533,  530
 13,   45,   46,   95,   96,  534,  532,  535,  536
 14,    3,   45,   96,   97,  537,  536,  538,  539
 15,   11,  118,  119,    9,  540,  541,  542,  543
 16,  166,  158,  157,  230,  544,  545,  546,  547
 17,  156,   80,   79,  155,  548,  549,  550,  551
 18,   21,  477,   62,    1,  492,  552,  553,  554
 19,   85,  103,   25,   26,  499,  555,  556,  557
 20,   24,   25,  103,  102,  558,  555,  559,  560
** ... 428 like lines cut
*Nset, nset=Set-1, generate
    1,  1427,     1
*Elset, elset=Set-1, generate
   1,  448,    1
** Section: CoCr-imp-section
*Solid Section, elset=Set-1, material=Co-Cr
22.5,
*End Instance
**  
*Instance, name=haste-implante-Copy-1, part=haste-implante-Copy
   16.058126,     2.624674,           0.
*Node
      1,  -23.5413113,   11.9063234
      2,  -4.50187683,   30.2090282
      3,  -20.9253273,   9.18504047
      4,  -19.5636997,   10.4924212
      5,  -20.8023396,   11.7824545
      6,  -17.1761398,   15.2641888
      7,     -15.9375,   13.9741554
      8,      -0.9375,  -1.64823115
      9,   8.59031391,          7.5
     10,  -6.40968609,   23.1223869
     11,  -7.64832544,   24.4124203
     12,  -4.39093971,   27.5400333
     13,  -3.15230083,        26.25
     14,       -1.875,   27.4764137
     15,  -22.5392361,   12.8696232
     16,  -21.5371609,   13.8329239
     17,  -20.5350857,   14.7962246
     18,  -19.5330086,   15.7595243
     19,  -18.5309334,   16.7228241
     20,  -17.5288582,   17.6861248
** ... 619 like lines cut
*Element, type=CPS8R
  1,   5, 211,  33,  34, 227, 228, 229, 230
  2,   4,   5,  34,   3, 231, 230, 232, 233
  3, 211, 212,  16,  15, 234, 235, 236, 237
  4,   7,  86, 110,   6, 238, 239, 240, 241
  5,  29,  71, 210,  30, 242, 243, 244, 245
  6, 218,  32,  31, 217, 246, 247, 248, 249
  7,  74,  12,  13,  14, 250, 251, 252, 253
  8,  77, 114, 113,  75, 254, 255, 256, 257
  9,  87,  10,  11,  79, 258, 259, 260, 261
 10, 101, 140, 137, 108, 262, 263, 264, 265
 11,  23,  22,  76,  77, 266, 267, 268, 269
 12,  15,   1,  33, 211, 270, 271, 228, 237
 13, 212, 211,   5,  35, 234, 227, 272, 273
 14,   6, 221, 220,  36, 274, 275, 276, 277
 15,  19,  18, 214, 215, 278, 279, 280, 281
 16,  19, 215, 216,  20, 281, 282, 283, 284
 17, 225,   6, 110, 223, 285, 240, 286, 287
 18, 141, 152, 172, 143, 288, 289, 290, 291
 19,  86,   7,  37,  89, 238, 292, 293, 294
 20,  75, 112,  25,  24, 295, 296, 297, 298
** ... 168 like lines cut
*Nset, nset=Set-1, generate
   1,  639,    1
*Elset, elset=Set-1, generate
   1,  188,    1
** Section: Tit-imp-sect
*Solid Section, elset=Set-1, material=titanium
22.5,
*End Instance
**  
*Instance, name=BLAH-osso-cut-imp-dim-1, part=BLAH-osso-cut-imp-dim
*Node
      1,   9.64843941,   25.7470608
      2,   24.6274719,   10.1465111
      3,   17.6584225,   38.6997528
      4,   11.5562496,   32.8337021
      5,   14.1831264,   30.1010876
      6,   12.9058256,   28.8746738
      7,   11.6671858,   30.1647072
      8,   8.40980053,   27.0370941
      9,   24.5941544,   10.0725517
     10,   18.4029922,   4.12804079
     11,   21.4632149,   4.68479967
     12,   12.7711678,   3.42338562
     13,  0.120626003,   16.5988293
     14,  -1.11801314,   17.8888626
     15,  -4.74421358,   14.4071283
     16,  -3.50557423,    13.117095
     17,  -4.86720181,   11.8097143
     18,  -7.48318529,   14.5309973
     19,  -12.7888975,   9.43058872
     20,  -9.86786747,   4.68479967
** ... 3839 like lines cut
*Element, type=CPS8R
  1,  296,  295,   34,   35, 1320, 1321, 1322, 1323
  2,  354,  349,  295,  296, 1324, 1325, 1320, 1326
  3,  295,  299,   33,   34, 1327, 1328, 1329, 1321
  4,  300,  302,   30,   31, 1330, 1331, 1332, 1333
  5,  299,  346,   32,   33, 1334, 1335, 1336, 1328
  6,  328,  307,  304,  326, 1337, 1338, 1339, 1340
  7,   59,  304,  307,   58, 1341, 1338, 1342, 1343
  8,   60,  303,  304,   59, 1344, 1345, 1341, 1346
  9,   63,  308,  306,   62, 1347, 1348, 1349, 1350
 10,  288,  309,   65,   66, 1351, 1352, 1353, 1354
 11,   72,  406,    6,    7, 1355, 1356, 1357, 1358
 12,  307,  328,  329,  310, 1337, 1359, 1360, 1361
 13,   35,   36,  294,  296, 1362, 1363, 1364, 1323
 14,  342,  321,  318,  336, 1365, 1366, 1367, 1368
 15,  314,  335,  333,  311, 1369, 1370, 1371, 1372
 16,  301,  291,   37,   38, 1373, 1374, 1375, 1376
 17,  290,  301,   38,   39, 1377, 1376, 1378, 1379
 18,  335,  314,  316,  337, 1369, 1380, 1381, 1382
 19,  292,  290,   39,   40, 1383, 1379, 1384, 1385
 20,  298,  297,   41,   42, 1386, 1387, 1388, 1389
** ... 1202 like lines cut
*Nset, nset=Set-1
    1,    2,    3,    4,    5,    6,    7,    8,    9,   10,   11,   12,   13,   14,   15,   16
   17,   18,   19,   20,   29,   30,   31,   32,   33,   34,   35,   36,   37,   38,   39,   40
   41,   42,   43,   44,   45,   46,   47,   48,   49,   50,   51,   52,   53,   54,   55,   56
   57,   58,   59,   60,   61,   62,   63,   64,   65,   66,   67,   68,   69,   70,   71,   72
   73,   74,   75,   76,   77,   78,   79,   80,   81,   82,   83,   84,   85,   86,   87,   88
   89,   90,   91,   92,   93,   94,   95,   96,   97,   98,   99,  100,  101,  102,  103,  104
  105,  106,  107,  108,  109,  110,  111,  112,  113,  114,  115,  116,  117,  118,  119,  238
  239,  240,  241,  242,  243,  244,  245,  246,  247,  248,  249,  250,  251,  252,  253,  254
  255,  256,  257,  258,  259,  260,  261,  262,  263,  264,  265,  266,  267,  268,  269,  270
  271,  272,  273,  274,  275,  276,  277,  278,  279,  280,  281,  282,  283,  284,  285,  286
  287,  288,  289,  290,  291,  292,  293,  294,  295,  296,  297,  298,  299,  300,  301,  302
  303,  304,  305,  306,  307,  308,  309,  310,  311,  312,  313,  314,  315,  316,  317,  318
  319,  320,  321,  322,  323,  324,  325,  326,  327,  328,  329,  330,  331,  332,  333,  334
  335,  336,  337,  338,  339,  340,  341,  342,  343,  344,  345,  346,  347,  348,  349,  350
  351,  352,  353,  354,  355,  356,  357,  358,  359,  360,  361,  362,  363,  364,  365,  366
  367,  368,  369,  370,  371,  372,  373,  374,  375,  376,  377,  378,  379,  380,  381,  382
  383,  384,  385,  386,  387,  388,  389,  390,  391,  392,  393,  394,  395,  396,  397,  398
  399,  400,  401,  402,  403,  404,  405,  406,  407,  408,  409,  410,  411,  412,  413,  414
  415,  416,  417,  418,  419,  420,  421,  422,  423,  424,  425,  426,  427,  428,  429,  430
  431,  432,  433,  434,  435,  436,  437,  438,  439,  440,  441,  442,  443,  444,  445,  446
** ... 72 like lines cut
*Elset, elset=Set-1
    1,    2,    3,    4,    5,    6,    7,    8,    9,   10,   11,   12,   13,   14,   15,   16
   17,   18,   19,   20,   21,   22,   23,   24,   25,   26,   27,   28,   29,   30,   31,   32
   33,   34,   35,   36,   37,   38,   39,   40,   41,   42,   43,   44,   45,   46,   47,   48
   49,   50,   51,   52,   53,   54,   55,   56,   57,   58,   59,   60,   61,   62,   63,   64
   65,   66,   67,   68,   69,   70,   71,   72,   73,   74,   75,   76,   77,   78,   79,   80
   81,   82,   83,   84,   85,   86,   87,   88,   89,   90,   91,   92,   93,   94,   95,   96
   97,   98,   99,  100,  101,  102,  103,  104,  105,  106,  107,  108,  109,  110,  111,  112
  113,  114,  115,  116,  117,  118,  119,  120,  121,  122,  123,  124,  125,  126,  127,  128
  129,  130,  131,  132,  133,  134,  135,  136,  137,  138,  139,  140,  141,  142,  143,  144
  145,  146,  147,  148,  149,  150,  151,  152,  153,  154,  155,  156,  157,  158,  159,  160
  161,  162,  163,  164,  165,  166,  167,  168,  169,  170,  171,  172,  173,  174,  175,  176
  177,  178,  179,  180,  181,  182,  183,  184,  185,  186,  187,  188,  189,  190,  191,  192
  193,  194,  195,  196,  197,  198,  199,  200,  201,  202,  203,  204,  205,  206,  207,  208
  209,  210,  211,  212,  213,  214,  215,  216,  217,  218,  219,  220,  221,  222,  223,  224
  225,  226,  227,  228,  229,  230,  231,  232,  233,  234,  235,  236,  237,  238,  239,  240
  241,  242,  243,  244,  245,  246,  247,  248,  249,  250,  251,  252,  253,  254,  255,  256
  257,  258,  259,  260,  261,  262,  263,  264,  265,  266,  267,  268,  269,  270,  271,  272
  273,  274,  275,  276,  277,  278,  279,  280, 1070, 1071, 1072, 1073, 1074, 1075, 1076, 1077
 1078, 1079, 1080, 1081, 1082, 1083, 1084, 1085, 1086, 1087, 1088, 1089, 1090, 1091, 1092, 1093
 1094, 1095, 1096, 1097, 1098, 1099, 1100, 1101, 1102, 1103, 1104, 1105, 1106, 1107, 1108, 1109
** ... 8 like lines cut
*Nset, nset=Set-2
    2,    3,    9,   10,   11,   12,   19,   20,   21,   22,   23,   24,   25,   26,   27,   28
   29,   44,   45,   46,   47,   48,   49,   50,   51,   52,   53,   54,   55,   56,   57,   58
   59,   60,   61,   62,   63,   64,   79,   80,   81,   82,  103,  104,  105,  106,  107,  108
  109,  110,  111,  112,  113,  114,  115,  116,  117,  118,  119,  120,  121,  122,  123,  124
  125,  126,  127,  128,  129,  130,  131,  132,  133,  134,  135,  136,  137,  138,  139,  140
  141,  142,  143,  144,  145,  146,  147,  148,  149,  150,  151,  152,  153,  154,  155,  156
  157,  158,  159,  160,  161,  162,  163,  164,  165,  166,  167,  168,  169,  170,  171,  172
  173,  174,  175,  176,  177,  178,  179,  180,  181,  182,  183,  184,  185,  186,  187,  188
  189,  190,  191,  192,  193,  194,  195,  196,  197,  198,  199,  200,  201,  202,  203,  204
  205,  206,  207,  208,  209,  210,  211,  212,  213,  214,  215,  216,  217,  218,  219,  220
  221,  222,  223,  224,  225,  226,  227,  228,  229,  230,  231,  232,  233,  234,  235,  236
  237,  238,  239,  240,  241,  242,  243,  244,  245,  246,  247,  248,  249,  250,  251,  252
  253,  254,  255,  256,  257,  258,  259,  260,  261,  262,  263,  264,  265,  266,  267,  268
  269,  270,  271,  272,  273,  274,  275,  276,  277,  278,  279,  280,  281,  282,  283,  284
  513,  514,  515,  516,  517,  518,  519,  520,  521,  522,  523,  524,  525,  526,  527,  528
  529,  530,  531,  532,  533,  534,  535,  536,  537,  538,  539,  540,  541,  542,  543,  544
  545,  546,  547,  548,  549,  550,  551,  552,  553,  554,  555,  556,  557,  558,  559,  560
  561,  562,  563,  564,  565,  566,  567,  568,  569,  570,  571,  572,  573,  574,  575,  576
  577,  578,  579,  580,  581,  582,  583,  584,  585,  586,  587,  588,  589,  590,  591,  592
  593,  594,  595,  596,  597,  598,  599,  600,  601,  602,  603,  604,  605,  606,  607,  608
** ... 142 like lines cut
*Elset, elset=Set-2, generate
  281,  1069,     1
** Section: osso-trabecular-sect
*Solid Section, elset=Set-1, material=osso-trabecular
22.5,
** Section: osso-section
*Solid Section, elset=Set-2, material=osso-cortical
22.5,
*End Instance
**  
*Node
      1,   5.97314882,   19.5872746,           0.
*Node
      2, -0.704770982,    45.096447,           0.
*Node
      3,   31.0009651,   35.8340263,           0.
*Nset, nset=BLAH-pontos, instance=BLAH-osso-cut-imp-dim-1
 3519, 3849
*Nset, nset=BLAH-pontos, instance=haste-implante-Copy-1
 609,
*Nset, nset=BLAH-pontos, instance=cabeça-implante-1
 1404,
*Nset, nset=Set-95
 2,
*Nset, nset=Set-96
 3,
*Nset, nset=Set-97, instance=BLAH-osso-cut-imp-dim-1
   23,   24,  158,  159,  160,  161,  162,  163,  164,  165,  166,  167,  168,  169,  170,  171
  172,  173,  174, 2070, 2077, 2193, 2196, 2221, 2245, 2264, 2274, 2275, 2283, 2936, 2939, 2941
 2942, 2945, 2950, 3107, 3112
*Elset, elset=Set-97, instance=BLAH-osso-cut-imp-dim-1
 322, 324, 356, 357, 363, 369, 374, 377, 378, 380, 594, 595, 596, 597, 598, 600
 684, 690
*Nset, nset=m_Set-91
 2,
*Nset, nset=m_Set-92
 3,
*Nset, nset=m_Set-93
 1,
*Nset, nset=m_Set-94
 1,
*Elset, elset=_m_Surf-35_S3, internal, instance=cabeça-implante-1
  1,  2, 12, 19, 40, 43
*Elset, elset=_m_Surf-35_S4, internal, instance=cabeça-implante-1
 18,
*Elset, elset=_m_Surf-35_S1, internal, instance=cabeça-implante-1
  11,  13,  14,  20,  23,  44,  74,  76, 130
*Surface, type=ELEMENT, name=m_Surf-35
_m_Surf-35_S3, S3
_m_Surf-35_S4, S4
_m_Surf-35_S1, S1
*Elset, elset=_m_Surf-37_S3, internal, instance=haste-implante-Copy-1
   1,   2,   7,  13,  22,  23,  40,  48,  49,  50,  71,  80,  90, 184
*Elset, elset=_m_Surf-37_S2, internal, instance=haste-implante-Copy-1
   7,   9,  12,  19,  35,  37,  38,  42,  45,  46,  55,  64,  65,  69,  70,  72
  73,  78, 183, 188
*Elset, elset=_m_Surf-37_S4, internal, instance=haste-implante-Copy-1
  2,  4,  7, 14, 27, 29, 36, 39, 43, 44, 47, 63
*Elset, elset=_m_Surf-37_S1, internal, instance=haste-implante-Copy-1
  2, 30, 31, 32, 37, 41, 44, 52, 85
*Surface, type=ELEMENT, name=m_Surf-37
_m_Surf-37_S3, S3
_m_Surf-37_S2, S2
_m_Surf-37_S4, S4
_m_Surf-37_S1, S1
*Elset, elset=_m_Surf-39_S3, internal, instance=haste-implante-Copy-1
   3,  20,  24,  62,  98, 185
*Elset, elset=_m_Surf-39_S4, internal, instance=haste-implante-Copy-1
  5, 16, 23, 57
*Elset, elset=_m_Surf-39_S2, internal, instance=haste-implante-Copy-1
 6,
*Elset, elset=_m_Surf-39_S1, internal, instance=haste-implante-Copy-1
 11, 12, 15, 21, 22, 54, 56, 61
*Surface, type=ELEMENT, name=m_Surf-39
_m_Surf-39_S3, S3
_m_Surf-39_S4, S4
_m_Surf-39_S2, S2
_m_Surf-39_S1, S1
*Elset, elset=_s_Surf-35_S3, internal, instance=BLAH-osso-cut-imp-dim-1
  10, 200
*Elset, elset=_s_Surf-35_S1, internal, instance=BLAH-osso-cut-imp-dim-1
  34,  39, 199, 214, 622, 623, 624
*Elset, elset=_s_Surf-35_S4, internal, instance=BLAH-osso-cut-imp-dim-1
  35,  37,  38, 179, 284
*Elset, elset=_s_Surf-35_S2, internal, instance=BLAH-osso-cut-imp-dim-1
 196, 285, 286
*Surface, type=ELEMENT, name=s_Surf-35
_s_Surf-35_S3, S3
_s_Surf-35_S1, S1
_s_Surf-35_S4, S4
_s_Surf-35_S2, S2
*Elset, elset=_s_Surf-37_S3, internal, instance=BLAH-osso-cut-imp-dim-1
   1,   3,   4,   5,  11,  16,  17,  19,  20,  22,  28, 195
*Elset, elset=_s_Surf-37_S1, internal, instance=BLAH-osso-cut-imp-dim-1
  13,  24,  43,  50,  59,  61, 166, 169, 173, 180, 181, 194, 196, 213, 240, 529
*Elset, elset=_s_Surf-37_S2, internal, instance=BLAH-osso-cut-imp-dim-1
  39,  40,  41,  81, 164, 171, 174, 184, 190, 192, 194, 212, 217, 426, 579
*Elset, elset=_s_Surf-37_S4, internal, instance=BLAH-osso-cut-imp-dim-1
  11,  43,  80, 170, 181, 183, 186, 187, 188, 191, 209, 211, 425, 427
*Surface, type=ELEMENT, name=s_Surf-37
_s_Surf-37_S3, S3
_s_Surf-37_S1, S1
_s_Surf-37_S2, S2
_s_Surf-37_S4, S4
*Elset, elset=_s_Surf-39_S1, internal, instance=cabeça-implante-1
   6,   7,  27,  79,  81, 107, 114
*Elset, elset=_s_Surf-39_S3, internal, instance=cabeça-implante-1
   9,  21,  28,  29,  30,  32,  35,  36,  85,  91, 121
*Surface, type=ELEMENT, name=s_Surf-39
_s_Surf-39_S1, S1
_s_Surf-39_S3, S3
*Elset, elset=_s_Surf-41_S4, internal, instance=cabeça-implante-1
 15, 45
*Elset, elset=_s_Surf-41_S2, internal, instance=cabeça-implante-1
 92, 93
*Surface, type=ELEMENT, name=s_Surf-41
_s_Surf-41_S4, S4
_s_Surf-41_S2, S2
*Elset, elset=_s_Surf-42_S2, internal, instance=BLAH-osso-cut-imp-dim-1
 440,
*Elset, elset=_s_Surf-42_S1, internal, instance=BLAH-osso-cut-imp-dim-1
 441,
*Elset, elset=_s_Surf-42_S4, internal, instance=BLAH-osso-cut-imp-dim-1
 443,
*Surface, type=ELEMENT, name=s_Surf-42
_s_Surf-42_S2, S2
_s_Surf-42_S1, S1
_s_Surf-42_S4, S4
*Elset, elset=_s_Surf-43_S4, internal, instance=cabeça-implante-1
 15, 45
*Elset, elset=_s_Surf-43_S2, internal, instance=cabeça-implante-1
 92, 93
*Surface, type=ELEMENT, name=s_Surf-43
_s_Surf-43_S4, S4
_s_Surf-43_S2, S2
*Elset, elset=_s_Surf-44_S2, internal, instance=BLAH-osso-cut-imp-dim-1
 440,
*Elset, elset=_s_Surf-44_S1, internal, instance=BLAH-osso-cut-imp-dim-1
 441,
*Elset, elset=_s_Surf-44_S4, internal, instance=BLAH-osso-cut-imp-dim-1
 443,
*Surface, type=ELEMENT, name=s_Surf-44
_s_Surf-44_S2, S2
_s_Surf-44_S1, S1
_s_Surf-44_S4, S4
** Constraint: Constraint-1
*Tie, name=Constraint-1, adjust=yes, type=SURFACE TO SURFACE
s_Surf-35, m_Surf-35
** Constraint: Constraint-2
*Tie, name=Constraint-2, adjust=yes, type=SURFACE TO SURFACE
s_Surf-37, m_Surf-37
** Constraint: Constraint-3
*Tie, name=Constraint-3, adjust=yes, type=SURFACE TO SURFACE
s_Surf-39, m_Surf-39
** Constraint: Constraint-4
*Coupling, constraint name=Constraint-4, ref node=m_Set-91, surface=s_Surf-41
*Distributing, weighting method=UNIFORM
** Constraint: Constraint-5
*Coupling, constraint name=Constraint-5, ref node=m_Set-92, surface=s_Surf-42
*Distributing, weighting method=UNIFORM
** Constraint: Constraint-6
*Coupling, constraint name=Constraint-6, ref node=m_Set-93, surface=s_Surf-43
*Distributing, weighting method=UNIFORM
** Constraint: Constraint-7
*Coupling, constraint name=Constraint-7, ref node=m_Set-94, surface=s_Surf-44
*Distributing, weighting method=UNIFORM
*End Assembly
** 
** MATERIALS
** 
*Material, name=Co-Cr
*Elastic
230000., 0.3
*Material, name=alumina
*Elastic
380000., 0.21
*Material, name=osso-cortical
*Elastic
17000., 0.3
*Material, name=osso-trabecular
*Elastic
1380., 0.3
*Material, name=stainless-steel-316
*Elastic
200000., 0.3
*Material, name=titanium
*Elastic
110000., 0.3
** ----------------------------------------------------------------
** 
** STEP: Step-1
** 
*Step, name=Step-1, nlgeom=NO
*Static
1., 1., 1e-05, 1.
** 
** BOUNDARY CONDITIONS
** 
** Name: BC-1 Type: Symmetry/Antisymmetry/Encastre
*Boundary
Set-97, ENCASTRE
** 
** LOADS
** 
** Name: Load-1   Type: Concentrated force
*Cload
Set-95, 1, 150.
Set-95, 2, -259.
** Name: Load-2   Type: Concentrated force
*Cload
Set-96, 1, -50.
Set-96, 2, 89.
** 
** OUTPUT REQUESTS
** 
*Restart, write, frequency=0
** 
** FIELD OUTPUT: F-Output-1
** 
*Output, field, variable=PRESELECT
** 
** HISTORY OUTPUT: H-Output-1
** 
*Output, history, variable=PRESELECT
*End Step
