*Heading
** Job name: BLAH-tit Model name: Model-1
** Generated by: Abaqus/CAE 2022
*Preprint, echo=NO, model=NO, history=NO, contact=NO
**
** PARTS
**
*Part, name=imp-osso
*End Part
**  
*Part, name=implante-2-Copy4
*End Part
**  
**
** ASSEMBLY
**
*Assembly, name=Assembly
**  
*Instance, name=imp-osso-1, part=imp-osso
*Node
      1,   9.75546551,   3.27838326
      2,  -2.83056974,   16.4935169
      3,  -4.44767809,   18.1914539
      4,  -8.48070049,    14.350421
      5,  -6.86359215,   12.6524839
      6,  -8.74742413,   10.8583298
      7,  -11.3135748,   13.5010653
      8,  -13.6788836,   11.2043009
      9,  -9.86786747,   4.68479967
     10,   1.60713303,  -5.21631813
     11,   25.1814842,   11.4778042
     12,   27.4088783,   9.13907623
     13,   15.2251291,  -2.46467447
     14,  -17.1640549,   7.82012701
     15,        -3.75,        -42.5
     16,         22.5,        -42.5
     17,   31.7393646,   35.0089798
     18,   27.7296276,   38.0977364
     19,   18.4082909,   42.3616104
     20,   15.4231606,    39.462986
** ... 3545 like lines cut
*Element, type=CPS8R
  1,   29,  310,  293,   28, 1223, 1224, 1225, 1226
  2,   56,   57,  296,  297, 1227, 1228, 1229, 1230
  3,   53,   54,  299,  300, 1231, 1232, 1233, 1234
  4,  292,  291,   48,   49, 1235, 1236, 1237, 1238
  5,   48,  291,  290,   47, 1236, 1239, 1240, 1241
  6,  346,  312,  290,  291, 1242, 1243, 1239, 1244
  7,  355,   39,   40,  289, 1245, 1246, 1247, 1248
  8,   38,  355,  286,    2, 1249, 1250, 1251, 1252
  9,  295,   58,   59,  294, 1253, 1254, 1255, 1256
 10,  304,  317,  357,  310, 1257, 1258, 1259, 1260
 11,  295,  296,   57,   58, 1261, 1228, 1262, 1253
 12,  295,  317,  318,  296, 1263, 1264, 1265, 1261
 13,  318,  319,  297,  296, 1266, 1267, 1229, 1265
 14,  307,   35,   36,  303, 1268, 1269, 1270, 1271
 15,   54,   55,  298,  299, 1272, 1273, 1274, 1232
 16,  362,  336,  319,  318, 1275, 1276, 1266, 1277
 17,  307,  361,  332,  309, 1278, 1279, 1280, 1281
 18,  311,  303,   36,   37, 1282, 1270, 1283, 1284
 19,    2,  286,  311,   37, 1251, 1285, 1284, 1286
 20,   39,  355,   38,    3, 1245, 1249, 1287, 1288
** ... 1102 like lines cut
*Nset, nset=Set-1
    1,    2,    3,    4,    5,    6,    7,    8,    9,   10,   11,   20,   21,   22,   23,   24
   25,   26,   27,   28,   29,   30,   31,   32,   33,   34,   35,   36,   37,   38,   39,   40
   41,   42,   43,   44,   45,   46,   47,   48,   49,   50,   51,   52,   53,   54,   55,   56
   57,   58,   59,   60,   61,   62,   63,   64,   65,   66,   67,   68,   69,   70,   71,   72
   73,   74,   75,   76,   77,   78,   79,   80,   81,   82,   83,   84,   85,   86,   87,   88
   89,   90,   91,   92,   93,   94,   95,   96,   97,   98,   99,  100,  101,  102,  103,  104
  105,  106,  107,  108,  241,  242,  243,  244,  245,  246,  247,  248,  249,  250,  251,  252
  253,  254,  255,  256,  257,  258,  259,  260,  261,  262,  263,  264,  265,  266,  267,  268
  269,  270,  271,  272,  273,  274,  275,  276,  277,  278,  279,  280,  281,  282,  283,  284
  285,  286,  287,  288,  289,  290,  291,  292,  293,  294,  295,  296,  297,  298,  299,  300
  301,  302,  303,  304,  305,  306,  307,  308,  309,  310,  311,  312,  313,  314,  315,  316
  317,  318,  319,  320,  321,  322,  323,  324,  325,  326,  327,  328,  329,  330,  331,  332
  333,  334,  335,  336,  337,  338,  339,  340,  341,  342,  343,  344,  345,  346,  347,  348
  349,  350,  351,  352,  353,  354,  355,  356,  357,  358,  359,  360,  361,  362,  363,  364
  365,  976,  977,  978,  979,  980,  981,  982,  983,  984,  985,  986,  987,  988,  989,  990
  991,  992,  993,  994,  995,  996,  997,  998,  999, 1000, 1001, 1002, 1003, 1004, 1005, 1006
 1007, 1008, 1009, 1010, 1011, 1012, 1013, 1014, 1015, 1016, 1017, 1018, 1019, 1020, 1021, 1022
 1023, 1024, 1025, 1026, 1027, 1028, 1029, 1030, 1031, 1032, 1033, 1034, 1035, 1036, 1037, 1038
 1039, 1040, 1041, 1042, 1043, 1044, 1045, 1046, 1047, 1048, 1049, 1050, 1051, 1052, 1053, 1054
 1055, 1056, 1057, 1058, 1059, 1060, 1061, 1062, 1063, 1064, 1065, 1066, 1067, 1068, 1069, 1070
** ... 64 like lines cut
*Elset, elset=Set-1
    1,    2,    3,    4,    5,    6,    7,    8,    9,   10,   11,   12,   13,   14,   15,   16
   17,   18,   19,   20,   21,   22,   23,   24,   25,   26,   27,   28,   29,   30,   31,   32
   33,   34,   35,   36,   37,   38,   39,   40,   41,   42,   43,   44,   45,   46,   47,   48
   49,   50,   51,   52,   53,   54,   55,   56,   57,   58,   59,   60,   61,   62,   63,   64
   65,   66,   67,   68,   69,   70,   71,   72,   73,   74,   75,   76,   77,   78,   79,   80
   81,   82,   83,   84,   85,   86,   87,   88,   89,   90,   91,   92,   93,   94,   95,   96
   97,   98,   99,  100,  101,  102,  828,  829,  830,  831,  832,  833,  834,  835,  836,  837
  838,  839,  840,  841,  842,  843,  844,  845,  846,  847,  848,  849,  850,  851,  852,  853
  854,  855,  856,  857,  858,  859,  860,  861,  862,  863,  864,  865,  866,  867,  868,  869
  870,  871,  872,  873,  874,  875,  876,  877,  878,  879,  880,  881,  882,  883,  884,  885
  886,  887,  888,  889,  890,  891,  892,  893,  894,  895,  896,  897,  898,  899,  900,  901
  902,  903,  904,  905,  906,  907,  908,  909,  910,  911,  912,  913,  914,  915,  916,  917
  918,  919,  920,  921,  922,  923,  924,  925,  926,  927,  928,  929,  930,  931,  932,  933
  934,  935,  936,  937,  938,  939,  940,  941,  942,  943,  944,  945,  946,  947,  948,  949
  950,  951,  952,  953,  954,  955,  956,  957,  958,  959,  960,  961,  962,  963,  964,  965
  966,  967,  968,  969,  970,  971,  972,  973,  974,  975,  976,  977,  978,  979,  980,  981
  982,  983,  984,  985,  986,  987,  988,  989,  990,  991,  992,  993,  994,  995,  996,  997
  998,  999, 1000, 1001, 1002, 1003, 1004, 1005, 1006, 1007, 1008, 1009, 1010, 1011, 1012, 1013
 1014, 1015, 1016, 1017, 1018, 1019, 1020, 1021, 1022, 1023, 1024, 1025, 1026, 1027, 1028, 1029
 1030, 1031, 1032, 1033, 1034, 1035, 1036, 1037, 1038, 1039, 1040, 1041, 1042, 1043, 1044, 1045
** ... 5 like lines cut
*Nset, nset=Set-2
    1,    8,    9,   10,   11,   12,   13,   14,   15,   16,   17,   18,   19,   20,   46,   47
   48,   49,   50,   51,   52,   53,   54,   55,   56,   57,   58,   59,   60,   61,   62,   63
   64,   65,   66,   67,   68,   69,   70,   71,   72,   73,   74,   75,   76,   77,   78,   79
   80,   81,   82,   83,   84,   85,   86,   87,   88,   89,   90,   91,   92,   93,   94,   95
   96,   97,   98,   99,  100,  101,  102,  103,  104,  105,  106,  107,  108,  109,  110,  111
  112,  113,  114,  115,  116,  117,  118,  119,  120,  121,  122,  123,  124,  125,  126,  127
  128,  129,  130,  131,  132,  133,  134,  135,  136,  137,  138,  139,  140,  141,  142,  143
  144,  145,  146,  147,  148,  149,  150,  151,  152,  153,  154,  155,  156,  157,  158,  159
  160,  161,  162,  163,  164,  165,  166,  167,  168,  169,  170,  171,  172,  173,  174,  175
  176,  177,  178,  179,  180,  181,  182,  183,  184,  185,  186,  187,  188,  189,  190,  191
  192,  193,  194,  195,  196,  197,  198,  199,  200,  201,  202,  203,  204,  205,  206,  207
  208,  209,  210,  211,  212,  213,  214,  215,  216,  217,  218,  219,  220,  221,  222,  223
  224,  225,  226,  227,  228,  229,  230,  231,  232,  233,  234,  235,  236,  237,  238,  239
  240,  241,  242,  243,  244,  245,  246,  247,  248,  249,  250,  251,  252,  253,  254,  255
  256,  257,  258,  259,  260,  261,  366,  367,  368,  369,  370,  371,  372,  373,  374,  375
  376,  377,  378,  379,  380,  381,  382,  383,  384,  385,  386,  387,  388,  389,  390,  391
  392,  393,  394,  395,  396,  397,  398,  399,  400,  401,  402,  403,  404,  405,  406,  407
  408,  409,  410,  411,  412,  413,  414,  415,  416,  417,  418,  419,  420,  421,  422,  423
  424,  425,  426,  427,  428,  429,  430,  431,  432,  433,  434,  435,  436,  437,  438,  439
  440,  441,  442,  443,  444,  445,  446,  447,  448,  449,  450,  451,  452,  453,  454,  455
** ... 131 like lines cut
*Elset, elset=Set-2, generate
 103,  827,    1
** Section: osso-trabecular-sect
*Solid Section, elset=Set-1, material=osso-trabecular
22.5,
** Section: osso-section
*Solid Section, elset=Set-2, material=osso-cortical
22.5,
*End Instance
**  
*Instance, name=implante-2-Copy4-1, part=implante-2-Copy4
   13.871379,    -5.815267,           0.
*Node
      1,  -1.64397871,    42.175106
      2,  -25.1849537,   19.3163319
      3,   -22.618803,   16.6735973
      4,  -20.7349701,   18.4677505
      5,  -22.3520794,   20.1656876
      6,  -18.3190575,   24.0067215
      7,  -16.7019482,   22.3087826
      8,   1.35374999,   3.35059237
      9,   13.5375004,   14.9543428
     10,  -4.51819849,   33.9125328
     11,  -6.13530731,   35.6104736
     12,   -1.9432826,   39.6029396
     13, -0.326174021,   37.9049988
     14,   1.14336121,   39.3045807
     15,   4.69218206,   48.3276482
     16,  -13.7710562,   52.2538414
     17,   -21.173996,   49.7814369
     18,  -31.1362495,   13.5375004
     19,  -2.71402311,   41.1360703
     20,  -3.78406739,   40.0970345
** ... 2197 like lines cut
*Element, type=CPS8R
  1,  150,  364,   40,   41,  762,  763,  764,  765
  2,   43,  150,   42,    4,  766,  767,  768,  769
  3,   37,   44,   45,   36,  770,  771,  772,  773
  4,  151,   47,    7,  153,  774,  775,  776,  777
  5,   22,   91,   92,   21,  778,  779,  780,  781
  6,   19,   12,  363,    1,  782,  783,  784,  785
  7,  154,   94,   13,  152,  786,  787,  788,  789
  8,   95,   96,  154,  152,  790,  791,  789,  792
  9,  157,  158,   26,   27,  793,  794,  795,  796
 10,  153,  196,  367,  195,  797,  798,  799,  800
 11,  270,  219,  214,  261,  801,  802,  803,  804
 12,   30,   31,  197,  155,  805,  806,  807,  808
 13,    2,   40,  364,   39,  809,  763,  810,  811
 14,    5,   38,   39,  364,  812,  813,  810,  814
 15,   38,    5,   44,   37,  812,  815,  770,  816
 16,   36,   45,   46,   35,  772,  817,  818,  819
 17,    6,   34,   35,   46,  820,  821,  818,  822
 18,   34,    6,  200,   33,  820,  823,  824,  825
 19,  151,  153,  195,  200,  777,  800,  826,  827
 20,  151,  200,    6,   47,  827,  823,  828,  774
** ... 676 like lines cut
*Nset, nset=Set-1
    1,    2,   15,   16,   17,   18,   19,   20,   21,   22,   23,   24,   25,   26,   27,   28
   29,   30,   31,   32,   33,   34,   35,   36,   37,   38,   39,   97,   98,   99,  100,  101
  102,  103,  104,  105,  106,  107,  108,  109,  110,  111,  112,  113,  114,  115,  116,  117
  118,  119,  120,  121,  122,  123,  124,  125,  126,  127,  128,  129,  130,  131,  132,  133
  134,  135,  136,  137,  138,  139,  140,  141,  142,  143,  144,  145,  146,  147,  148,  149
  373,  374,  375,  376,  377,  378,  379,  380,  381,  382,  383,  384,  385,  386,  387,  388
  389,  390,  391,  392,  393,  394,  395,  396,  397,  398,  399,  400,  401,  402,  403,  404
  405,  406,  407,  408,  409,  410,  411,  412,  413,  414,  415,  416,  417,  418,  419,  420
  421,  422,  423,  424,  425,  426,  427,  428,  429,  430,  431,  432,  433,  434,  435,  436
  437,  438,  439,  440,  441,  442,  443,  444,  445,  446,  447,  448,  449,  450,  451,  452
  453,  454,  455,  456,  457,  458,  459,  460,  461,  462,  463,  464,  465,  466,  467,  468
  469,  470,  471,  472,  473,  474,  475,  476,  477,  478,  479,  480,  481,  482,  483,  484
  485,  486,  487,  488,  489,  490,  491,  492,  493,  494,  495,  496,  497,  498,  499,  500
  501,  502,  503,  504,  505,  506,  507,  508,  509,  510,  511,  512,  513,  514,  515,  516
  517,  518,  519,  520,  521,  522,  523,  524,  525,  526,  527,  528,  529,  530,  531,  532
  533,  534,  535,  536,  537,  538,  539,  540,  541,  542,  543,  544,  545,  546,  547,  548
  549,  550,  551,  552,  553,  554,  555,  556,  557,  558,  559,  560,  561,  562,  563,  564
  565,  566,  567,  568,  569,  570,  571,  572,  573,  574,  575,  576,  577,  578,  579,  580
  581,  582,  583,  584,  585,  586,  587,  588,  589,  590,  591,  592,  593,  594,  595,  596
  597,  598,  599,  600,  601,  602,  603,  604,  605,  606,  607,  608,  609,  610,  611,  612
** ... 66 like lines cut
*Elset, elset=Set-1, generate
 269,  696,    1
*Nset, nset=Set-2
    1,    2,    3,    4,    5,    6,    7,    8,    9,   10,   11,   12,   13,   14,   19,   20
   21,   22,   23,   24,   25,   26,   27,   28,   29,   30,   31,   32,   33,   34,   35,   36
   37,   38,   39,   40,   41,   42,   43,   44,   45,   46,   47,   48,   49,   50,   51,   52
   53,   54,   55,   56,   57,   58,   59,   60,   61,   62,   63,   64,   65,   66,   67,   68
   69,   70,   71,   72,   73,   74,   75,   76,   77,   78,   79,   80,   81,   82,   83,   84
   85,   86,   87,   88,   89,   90,   91,   92,   93,   94,   95,   96,  150,  151,  152,  153
  154,  155,  156,  157,  158,  159,  160,  161,  162,  163,  164,  165,  166,  167,  168,  169
  170,  171,  172,  173,  174,  175,  176,  177,  178,  179,  180,  181,  182,  183,  184,  185
  186,  187,  188,  189,  190,  191,  192,  193,  194,  195,  196,  197,  198,  199,  200,  201
  202,  203,  204,  205,  206,  207,  208,  209,  210,  211,  212,  213,  214,  215,  216,  217
  218,  219,  220,  221,  222,  223,  224,  225,  226,  227,  228,  229,  230,  231,  232,  233
  234,  235,  236,  237,  238,  239,  240,  241,  242,  243,  244,  245,  246,  247,  248,  249
  250,  251,  252,  253,  254,  255,  256,  257,  258,  259,  260,  261,  262,  263,  264,  265
  266,  267,  268,  269,  270,  271,  272,  273,  274,  275,  276,  277,  278,  279,  280,  281
  282,  283,  284,  285,  286,  287,  288,  289,  290,  291,  292,  293,  294,  295,  296,  297
  298,  299,  300,  301,  302,  303,  304,  305,  306,  307,  308,  309,  310,  311,  312,  313
  314,  315,  316,  317,  318,  319,  320,  321,  322,  323,  324,  325,  326,  327,  328,  329
  330,  331,  332,  333,  334,  335,  336,  337,  338,  339,  340,  341,  342,  343,  344,  345
  346,  347,  348,  349,  350,  351,  352,  353,  354,  355,  356,  357,  358,  359,  360,  361
  362,  363,  364,  365,  366,  367,  368,  369,  370,  371,  372,  762,  763,  764,  765,  766
** ... 37 like lines cut
*Elset, elset=Set-2, generate
   1,  268,    1
*Nset, nset=Set-3
    1,    2,   15,   16,   17,   18,   19,   20,   21,   22,   23,   24,   25,   26,   27,   28
   29,   30,   31,   32,   33,   34,   35,   36,   37,   38,   39,   97,   98,   99,  100,  101
  102,  103,  104,  105,  106,  107,  108,  109,  110,  111,  112,  113,  114,  115,  116,  117
  118,  119,  120,  121,  122,  123,  124,  125,  126,  127,  128,  129,  130,  131,  132,  133
  134,  135,  136,  137,  138,  139,  140,  141,  142,  143,  144,  145,  146,  147,  148,  149
  373,  374,  375,  376,  377,  378,  379,  380,  381,  382,  383,  384,  385,  386,  387,  388
  389,  390,  391,  392,  393,  394,  395,  396,  397,  398,  399,  400,  401,  402,  403,  404
  405,  406,  407,  408,  409,  410,  411,  412,  413,  414,  415,  416,  417,  418,  419,  420
  421,  422,  423,  424,  425,  426,  427,  428,  429,  430,  431,  432,  433,  434,  435,  436
  437,  438,  439,  440,  441,  442,  443,  444,  445,  446,  447,  448,  449,  450,  451,  452
  453,  454,  455,  456,  457,  458,  459,  460,  461,  462,  463,  464,  465,  466,  467,  468
  469,  470,  471,  472,  473,  474,  475,  476,  477,  478,  479,  480,  481,  482,  483,  484
  485,  486,  487,  488,  489,  490,  491,  492,  493,  494,  495,  496,  497,  498,  499,  500
  501,  502,  503,  504,  505,  506,  507,  508,  509,  510,  511,  512,  513,  514,  515,  516
  517,  518,  519,  520,  521,  522,  523,  524,  525,  526,  527,  528,  529,  530,  531,  532
  533,  534,  535,  536,  537,  538,  539,  540,  541,  542,  543,  544,  545,  546,  547,  548
  549,  550,  551,  552,  553,  554,  555,  556,  557,  558,  559,  560,  561,  562,  563,  564
  565,  566,  567,  568,  569,  570,  571,  572,  573,  574,  575,  576,  577,  578,  579,  580
  581,  582,  583,  584,  585,  586,  587,  588,  589,  590,  591,  592,  593,  594,  595,  596
  597,  598,  599,  600,  601,  602,  603,  604,  605,  606,  607,  608,  609,  610,  611,  612
** ... 66 like lines cut
*Elset, elset=Set-3, generate
 269,  696,    1
*Nset, nset=Set-4
    1,    2,   15,   16,   17,   18,   19,   20,   21,   22,   23,   24,   25,   26,   27,   28
   29,   30,   31,   32,   33,   34,   35,   36,   37,   38,   39,   97,   98,   99,  100,  101
  102,  103,  104,  105,  106,  107,  108,  109,  110,  111,  112,  113,  114,  115,  116,  117
  118,  119,  120,  121,  122,  123,  124,  125,  126,  127,  128,  129,  130,  131,  132,  133
  134,  135,  136,  137,  138,  139,  140,  141,  142,  143,  144,  145,  146,  147,  148,  149
  373,  374,  375,  376,  377,  378,  379,  380,  381,  382,  383,  384,  385,  386,  387,  388
  389,  390,  391,  392,  393,  394,  395,  396,  397,  398,  399,  400,  401,  402,  403,  404
  405,  406,  407,  408,  409,  410,  411,  412,  413,  414,  415,  416,  417,  418,  419,  420
  421,  422,  423,  424,  425,  426,  427,  428,  429,  430,  431,  432,  433,  434,  435,  436
  437,  438,  439,  440,  441,  442,  443,  444,  445,  446,  447,  448,  449,  450,  451,  452
  453,  454,  455,  456,  457,  458,  459,  460,  461,  462,  463,  464,  465,  466,  467,  468
  469,  470,  471,  472,  473,  474,  475,  476,  477,  478,  479,  480,  481,  482,  483,  484
  485,  486,  487,  488,  489,  490,  491,  492,  493,  494,  495,  496,  497,  498,  499,  500
  501,  502,  503,  504,  505,  506,  507,  508,  509,  510,  511,  512,  513,  514,  515,  516
  517,  518,  519,  520,  521,  522,  523,  524,  525,  526,  527,  528,  529,  530,  531,  532
  533,  534,  535,  536,  537,  538,  539,  540,  541,  542,  543,  544,  545,  546,  547,  548
  549,  550,  551,  552,  553,  554,  555,  556,  557,  558,  559,  560,  561,  562,  563,  564
  565,  566,  567,  568,  569,  570,  571,  572,  573,  574,  575,  576,  577,  578,  579,  580
  581,  582,  583,  584,  585,  586,  587,  588,  589,  590,  591,  592,  593,  594,  595,  596
  597,  598,  599,  600,  601,  602,  603,  604,  605,  606,  607,  608,  609,  610,  611,  612
** ... 66 like lines cut
*Elset, elset=Set-4, generate
 269,  696,    1
*Nset, nset=Set-5
    1,    2,    3,    4,    5,    6,    7,    8,    9,   10,   11,   12,   13,   14,   19,   20
   21,   22,   23,   24,   25,   26,   27,   28,   29,   30,   31,   32,   33,   34,   35,   36
   37,   38,   39,   40,   41,   42,   43,   44,   45,   46,   47,   48,   49,   50,   51,   52
   53,   54,   55,   56,   57,   58,   59,   60,   61,   62,   63,   64,   65,   66,   67,   68
   69,   70,   71,   72,   73,   74,   75,   76,   77,   78,   79,   80,   81,   82,   83,   84
   85,   86,   87,   88,   89,   90,   91,   92,   93,   94,   95,   96,  150,  151,  152,  153
  154,  155,  156,  157,  158,  159,  160,  161,  162,  163,  164,  165,  166,  167,  168,  169
  170,  171,  172,  173,  174,  175,  176,  177,  178,  179,  180,  181,  182,  183,  184,  185
  186,  187,  188,  189,  190,  191,  192,  193,  194,  195,  196,  197,  198,  199,  200,  201
  202,  203,  204,  205,  206,  207,  208,  209,  210,  211,  212,  213,  214,  215,  216,  217
  218,  219,  220,  221,  222,  223,  224,  225,  226,  227,  228,  229,  230,  231,  232,  233
  234,  235,  236,  237,  238,  239,  240,  241,  242,  243,  244,  245,  246,  247,  248,  249
  250,  251,  252,  253,  254,  255,  256,  257,  258,  259,  260,  261,  262,  263,  264,  265
  266,  267,  268,  269,  270,  271,  272,  273,  274,  275,  276,  277,  278,  279,  280,  281
  282,  283,  284,  285,  286,  287,  288,  289,  290,  291,  292,  293,  294,  295,  296,  297
  298,  299,  300,  301,  302,  303,  304,  305,  306,  307,  308,  309,  310,  311,  312,  313
  314,  315,  316,  317,  318,  319,  320,  321,  322,  323,  324,  325,  326,  327,  328,  329
  330,  331,  332,  333,  334,  335,  336,  337,  338,  339,  340,  341,  342,  343,  344,  345
  346,  347,  348,  349,  350,  351,  352,  353,  354,  355,  356,  357,  358,  359,  360,  361
  362,  363,  364,  365,  366,  367,  368,  369,  370,  371,  372,  762,  763,  764,  765,  766
** ... 37 like lines cut
*Elset, elset=Set-5, generate
   1,  268,    1
*Nset, nset=Set-6
    1,    2,    3,    4,    5,    6,    7,    8,    9,   10,   11,   12,   13,   14,   19,   20
   21,   22,   23,   24,   25,   26,   27,   28,   29,   30,   31,   32,   33,   34,   35,   36
   37,   38,   39,   40,   41,   42,   43,   44,   45,   46,   47,   48,   49,   50,   51,   52
   53,   54,   55,   56,   57,   58,   59,   60,   61,   62,   63,   64,   65,   66,   67,   68
   69,   70,   71,   72,   73,   74,   75,   76,   77,   78,   79,   80,   81,   82,   83,   84
   85,   86,   87,   88,   89,   90,   91,   92,   93,   94,   95,   96,  150,  151,  152,  153
  154,  155,  156,  157,  158,  159,  160,  161,  162,  163,  164,  165,  166,  167,  168,  169
  170,  171,  172,  173,  174,  175,  176,  177,  178,  179,  180,  181,  182,  183,  184,  185
  186,  187,  188,  189,  190,  191,  192,  193,  194,  195,  196,  197,  198,  199,  200,  201
  202,  203,  204,  205,  206,  207,  208,  209,  210,  211,  212,  213,  214,  215,  216,  217
  218,  219,  220,  221,  222,  223,  224,  225,  226,  227,  228,  229,  230,  231,  232,  233
  234,  235,  236,  237,  238,  239,  240,  241,  242,  243,  244,  245,  246,  247,  248,  249
  250,  251,  252,  253,  254,  255,  256,  257,  258,  259,  260,  261,  262,  263,  264,  265
  266,  267,  268,  269,  270,  271,  272,  273,  274,  275,  276,  277,  278,  279,  280,  281
  282,  283,  284,  285,  286,  287,  288,  289,  290,  291,  292,  293,  294,  295,  296,  297
  298,  299,  300,  301,  302,  303,  304,  305,  306,  307,  308,  309,  310,  311,  312,  313
  314,  315,  316,  317,  318,  319,  320,  321,  322,  323,  324,  325,  326,  327,  328,  329
  330,  331,  332,  333,  334,  335,  336,  337,  338,  339,  340,  341,  342,  343,  344,  345
  346,  347,  348,  349,  350,  351,  352,  353,  354,  355,  356,  357,  358,  359,  360,  361
  362,  363,  364,  365,  366,  367,  368,  369,  370,  371,  372,  762,  763,  764,  765,  766
** ... 37 like lines cut
*Elset, elset=Set-6, generate
   1,  268,    1
*Nset, nset=Set-7, generate
    1,  2217,     1
*Elset, elset=Set-7, generate
   1,  696,    1
*Nset, nset=Set-8
    1,    2,   15,   16,   17,   18,   19,   20,   21,   22,   23,   24,   25,   26,   27,   28
   29,   30,   31,   32,   33,   34,   35,   36,   37,   38,   39,   97,   98,   99,  100,  101
  102,  103,  104,  105,  106,  107,  108,  109,  110,  111,  112,  113,  114,  115,  116,  117
  118,  119,  120,  121,  122,  123,  124,  125,  126,  127,  128,  129,  130,  131,  132,  133
  134,  135,  136,  137,  138,  139,  140,  141,  142,  143,  144,  145,  146,  147,  148,  149
  373,  374,  375,  376,  377,  378,  379,  380,  381,  382,  383,  384,  385,  386,  387,  388
  389,  390,  391,  392,  393,  394,  395,  396,  397,  398,  399,  400,  401,  402,  403,  404
  405,  406,  407,  408,  409,  410,  411,  412,  413,  414,  415,  416,  417,  418,  419,  420
  421,  422,  423,  424,  425,  426,  427,  428,  429,  430,  431,  432,  433,  434,  435,  436
  437,  438,  439,  440,  441,  442,  443,  444,  445,  446,  447,  448,  449,  450,  451,  452
  453,  454,  455,  456,  457,  458,  459,  460,  461,  462,  463,  464,  465,  466,  467,  468
  469,  470,  471,  472,  473,  474,  475,  476,  477,  478,  479,  480,  481,  482,  483,  484
  485,  486,  487,  488,  489,  490,  491,  492,  493,  494,  495,  496,  497,  498,  499,  500
  501,  502,  503,  504,  505,  506,  507,  508,  509,  510,  511,  512,  513,  514,  515,  516
  517,  518,  519,  520,  521,  522,  523,  524,  525,  526,  527,  528,  529,  530,  531,  532
  533,  534,  535,  536,  537,  538,  539,  540,  541,  542,  543,  544,  545,  546,  547,  548
  549,  550,  551,  552,  553,  554,  555,  556,  557,  558,  559,  560,  561,  562,  563,  564
  565,  566,  567,  568,  569,  570,  571,  572,  573,  574,  575,  576,  577,  578,  579,  580
  581,  582,  583,  584,  585,  586,  587,  588,  589,  590,  591,  592,  593,  594,  595,  596
  597,  598,  599,  600,  601,  602,  603,  604,  605,  606,  607,  608,  609,  610,  611,  612
** ... 66 like lines cut
*Elset, elset=Set-8, generate
 269,  696,    1
*Nset, nset=Set-9
    1,    2,    3,    4,    5,    6,    7,    8,    9,   10,   11,   12,   13,   14,   19,   20
   21,   22,   23,   24,   25,   26,   27,   28,   29,   30,   31,   32,   33,   34,   35,   36
   37,   38,   39,   40,   41,   42,   43,   44,   45,   46,   47,   48,   49,   50,   51,   52
   53,   54,   55,   56,   57,   58,   59,   60,   61,   62,   63,   64,   65,   66,   67,   68
   69,   70,   71,   72,   73,   74,   75,   76,   77,   78,   79,   80,   81,   82,   83,   84
   85,   86,   87,   88,   89,   90,   91,   92,   93,   94,   95,   96,  150,  151,  152,  153
  154,  155,  156,  157,  158,  159,  160,  161,  162,  163,  164,  165,  166,  167,  168,  169
  170,  171,  172,  173,  174,  175,  176,  177,  178,  179,  180,  181,  182,  183,  184,  185
  186,  187,  188,  189,  190,  191,  192,  193,  194,  195,  196,  197,  198,  199,  200,  201
  202,  203,  204,  205,  206,  207,  208,  209,  210,  211,  212,  213,  214,  215,  216,  217
  218,  219,  220,  221,  222,  223,  224,  225,  226,  227,  228,  229,  230,  231,  232,  233
  234,  235,  236,  237,  238,  239,  240,  241,  242,  243,  244,  245,  246,  247,  248,  249
  250,  251,  252,  253,  254,  255,  256,  257,  258,  259,  260,  261,  262,  263,  264,  265
  266,  267,  268,  269,  270,  271,  272,  273,  274,  275,  276,  277,  278,  279,  280,  281
  282,  283,  284,  285,  286,  287,  288,  289,  290,  291,  292,  293,  294,  295,  296,  297
  298,  299,  300,  301,  302,  303,  304,  305,  306,  307,  308,  309,  310,  311,  312,  313
  314,  315,  316,  317,  318,  319,  320,  321,  322,  323,  324,  325,  326,  327,  328,  329
  330,  331,  332,  333,  334,  335,  336,  337,  338,  339,  340,  341,  342,  343,  344,  345
  346,  347,  348,  349,  350,  351,  352,  353,  354,  355,  356,  357,  358,  359,  360,  361
  362,  363,  364,  365,  366,  367,  368,  369,  370,  371,  372,  762,  763,  764,  765,  766
** ... 37 like lines cut
*Elset, elset=Set-9, generate
   1,  268,    1
*Nset, nset=Set-10
    1,    2,    3,    4,    5,    6,    7,    8,    9,   10,   11,   12,   13,   14,   19,   20
   21,   22,   23,   24,   25,   26,   27,   28,   29,   30,   31,   32,   33,   34,   35,   36
   37,   38,   39,   40,   41,   42,   43,   44,   45,   46,   47,   48,   49,   50,   51,   52
   53,   54,   55,   56,   57,   58,   59,   60,   61,   62,   63,   64,   65,   66,   67,   68
   69,   70,   71,   72,   73,   74,   75,   76,   77,   78,   79,   80,   81,   82,   83,   84
   85,   86,   87,   88,   89,   90,   91,   92,   93,   94,   95,   96,  150,  151,  152,  153
  154,  155,  156,  157,  158,  159,  160,  161,  162,  163,  164,  165,  166,  167,  168,  169
  170,  171,  172,  173,  174,  175,  176,  177,  178,  179,  180,  181,  182,  183,  184,  185
  186,  187,  188,  189,  190,  191,  192,  193,  194,  195,  196,  197,  198,  199,  200,  201
  202,  203,  204,  205,  206,  207,  208,  209,  210,  211,  212,  213,  214,  215,  216,  217
  218,  219,  220,  221,  222,  223,  224,  225,  226,  227,  228,  229,  230,  231,  232,  233
  234,  235,  236,  237,  238,  239,  240,  241,  242,  243,  244,  245,  246,  247,  248,  249
  250,  251,  252,  253,  254,  255,  256,  257,  258,  259,  260,  261,  262,  263,  264,  265
  266,  267,  268,  269,  270,  271,  272,  273,  274,  275,  276,  277,  278,  279,  280,  281
  282,  283,  284,  285,  286,  287,  288,  289,  290,  291,  292,  293,  294,  295,  296,  297
  298,  299,  300,  301,  302,  303,  304,  305,  306,  307,  308,  309,  310,  311,  312,  313
  314,  315,  316,  317,  318,  319,  320,  321,  322,  323,  324,  325,  326,  327,  328,  329
  330,  331,  332,  333,  334,  335,  336,  337,  338,  339,  340,  341,  342,  343,  344,  345
  346,  347,  348,  349,  350,  351,  352,  353,  354,  355,  356,  357,  358,  359,  360,  361
  362,  363,  364,  365,  366,  367,  368,  369,  370,  371,  372,  762,  763,  764,  765,  766
** ... 37 like lines cut
*Elset, elset=Set-10, generate
   1,  268,    1
*Nset, nset=Set-11
    1,    2,    3,    4,    5,    6,    7,    8,    9,   10,   11,   12,   13,   14,   19,   20
   21,   22,   23,   24,   25,   26,   27,   28,   29,   30,   31,   32,   33,   34,   35,   36
   37,   38,   39,   40,   41,   42,   43,   44,   45,   46,   47,   48,   49,   50,   51,   52
   53,   54,   55,   56,   57,   58,   59,   60,   61,   62,   63,   64,   65,   66,   67,   68
   69,   70,   71,   72,   73,   74,   75,   76,   77,   78,   79,   80,   81,   82,   83,   84
   85,   86,   87,   88,   89,   90,   91,   92,   93,   94,   95,   96,  150,  151,  152,  153
  154,  155,  156,  157,  158,  159,  160,  161,  162,  163,  164,  165,  166,  167,  168,  169
  170,  171,  172,  173,  174,  175,  176,  177,  178,  179,  180,  181,  182,  183,  184,  185
  186,  187,  188,  189,  190,  191,  192,  193,  194,  195,  196,  197,  198,  199,  200,  201
  202,  203,  204,  205,  206,  207,  208,  209,  210,  211,  212,  213,  214,  215,  216,  217
  218,  219,  220,  221,  222,  223,  224,  225,  226,  227,  228,  229,  230,  231,  232,  233
  234,  235,  236,  237,  238,  239,  240,  241,  242,  243,  244,  245,  246,  247,  248,  249
  250,  251,  252,  253,  254,  255,  256,  257,  258,  259,  260,  261,  262,  263,  264,  265
  266,  267,  268,  269,  270,  271,  272,  273,  274,  275,  276,  277,  278,  279,  280,  281
  282,  283,  284,  285,  286,  287,  288,  289,  290,  291,  292,  293,  294,  295,  296,  297
  298,  299,  300,  301,  302,  303,  304,  305,  306,  307,  308,  309,  310,  311,  312,  313
  314,  315,  316,  317,  318,  319,  320,  321,  322,  323,  324,  325,  326,  327,  328,  329
  330,  331,  332,  333,  334,  335,  336,  337,  338,  339,  340,  341,  342,  343,  344,  345
  346,  347,  348,  349,  350,  351,  352,  353,  354,  355,  356,  357,  358,  359,  360,  361
  362,  363,  364,  365,  366,  367,  368,  369,  370,  371,  372,  762,  763,  764,  765,  766
** ... 37 like lines cut
*Elset, elset=Set-11, generate
   1,  268,    1
*Nset, nset=Set-12
    1,    2,    3,    4,    5,    6,    7,    8,    9,   10,   11,   12,   13,   14,   19,   20
   21,   22,   23,   24,   25,   26,   27,   28,   29,   30,   31,   32,   33,   34,   35,   36
   37,   38,   39,   40,   41,   42,   43,   44,   45,   46,   47,   48,   49,   50,   51,   52
   53,   54,   55,   56,   57,   58,   59,   60,   61,   62,   63,   64,   65,   66,   67,   68
   69,   70,   71,   72,   73,   74,   75,   76,   77,   78,   79,   80,   81,   82,   83,   84
   85,   86,   87,   88,   89,   90,   91,   92,   93,   94,   95,   96,  150,  151,  152,  153
  154,  155,  156,  157,  158,  159,  160,  161,  162,  163,  164,  165,  166,  167,  168,  169
  170,  171,  172,  173,  174,  175,  176,  177,  178,  179,  180,  181,  182,  183,  184,  185
  186,  187,  188,  189,  190,  191,  192,  193,  194,  195,  196,  197,  198,  199,  200,  201
  202,  203,  204,  205,  206,  207,  208,  209,  210,  211,  212,  213,  214,  215,  216,  217
  218,  219,  220,  221,  222,  223,  224,  225,  226,  227,  228,  229,  230,  231,  232,  233
  234,  235,  236,  237,  238,  239,  240,  241,  242,  243,  244,  245,  246,  247,  248,  249
  250,  251,  252,  253,  254,  255,  256,  257,  258,  259,  260,  261,  262,  263,  264,  265
  266,  267,  268,  269,  270,  271,  272,  273,  274,  275,  276,  277,  278,  279,  280,  281
  282,  283,  284,  285,  286,  287,  288,  289,  290,  291,  292,  293,  294,  295,  296,  297
  298,  299,  300,  301,  302,  303,  304,  305,  306,  307,  308,  309,  310,  311,  312,  313
  314,  315,  316,  317,  318,  319,  320,  321,  322,  323,  324,  325,  326,  327,  328,  329
  330,  331,  332,  333,  334,  335,  336,  337,  338,  339,  340,  341,  342,  343,  344,  345
  346,  347,  348,  349,  350,  351,  352,  353,  354,  355,  356,  357,  358,  359,  360,  361
  362,  363,  364,  365,  366,  367,  368,  369,  370,  371,  372,  762,  763,  764,  765,  766
** ... 37 like lines cut
*Elset, elset=Set-12, generate
   1,  268,    1
*Nset, nset=Set-13, generate
    1,  2217,     1
*Elset, elset=Set-13, generate
   1,  696,    1
*Nset, nset=Set-14
    1,    2,    3,    4,    5,    6,    7,    8,    9,   10,   11,   12,   13,   14,   19,   20
   21,   22,   23,   24,   25,   26,   27,   28,   29,   30,   31,   32,   33,   34,   35,   36
   37,   38,   39,   40,   41,   42,   43,   44,   45,   46,   47,   48,   49,   50,   51,   52
   53,   54,   55,   56,   57,   58,   59,   60,   61,   62,   63,   64,   65,   66,   67,   68
   69,   70,   71,   72,   73,   74,   75,   76,   77,   78,   79,   80,   81,   82,   83,   84
   85,   86,   87,   88,   89,   90,   91,   92,   93,   94,   95,   96,  150,  151,  152,  153
  154,  155,  156,  157,  158,  159,  160,  161,  162,  163,  164,  165,  166,  167,  168,  169
  170,  171,  172,  173,  174,  175,  176,  177,  178,  179,  180,  181,  182,  183,  184,  185
  186,  187,  188,  189,  190,  191,  192,  193,  194,  195,  196,  197,  198,  199,  200,  201
  202,  203,  204,  205,  206,  207,  208,  209,  210,  211,  212,  213,  214,  215,  216,  217
  218,  219,  220,  221,  222,  223,  224,  225,  226,  227,  228,  229,  230,  231,  232,  233
  234,  235,  236,  237,  238,  239,  240,  241,  242,  243,  244,  245,  246,  247,  248,  249
  250,  251,  252,  253,  254,  255,  256,  257,  258,  259,  260,  261,  262,  263,  264,  265
  266,  267,  268,  269,  270,  271,  272,  273,  274,  275,  276,  277,  278,  279,  280,  281
  282,  283,  284,  285,  286,  287,  288,  289,  290,  291,  292,  293,  294,  295,  296,  297
  298,  299,  300,  301,  302,  303,  304,  305,  306,  307,  308,  309,  310,  311,  312,  313
  314,  315,  316,  317,  318,  319,  320,  321,  322,  323,  324,  325,  326,  327,  328,  329
  330,  331,  332,  333,  334,  335,  336,  337,  338,  339,  340,  341,  342,  343,  344,  345
  346,  347,  348,  349,  350,  351,  352,  353,  354,  355,  356,  357,  358,  359,  360,  361
  362,  363,  364,  365,  366,  367,  368,  369,  370,  371,  372,  762,  763,  764,  765,  766
** ... 37 like lines cut
*Elset, elset=Set-14, generate
   1,  268,    1
*Nset, nset=Set-15
    1,    2,   15,   16,   17,   18,   19,   20,   21,   22,   23,   24,   25,   26,   27,   28
   29,   30,   31,   32,   33,   34,   35,   36,   37,   38,   39,   97,   98,   99,  100,  101
  102,  103,  104,  105,  106,  107,  108,  109,  110,  111,  112,  113,  114,  115,  116,  117
  118,  119,  120,  121,  122,  123,  124,  125,  126,  127,  128,  129,  130,  131,  132,  133
  134,  135,  136,  137,  138,  139,  140,  141,  142,  143,  144,  145,  146,  147,  148,  149
  373,  374,  375,  376,  377,  378,  379,  380,  381,  382,  383,  384,  385,  386,  387,  388
  389,  390,  391,  392,  393,  394,  395,  396,  397,  398,  399,  400,  401,  402,  403,  404
  405,  406,  407,  408,  409,  410,  411,  412,  413,  414,  415,  416,  417,  418,  419,  420
  421,  422,  423,  424,  425,  426,  427,  428,  429,  430,  431,  432,  433,  434,  435,  436
  437,  438,  439,  440,  441,  442,  443,  444,  445,  446,  447,  448,  449,  450,  451,  452
  453,  454,  455,  456,  457,  458,  459,  460,  461,  462,  463,  464,  465,  466,  467,  468
  469,  470,  471,  472,  473,  474,  475,  476,  477,  478,  479,  480,  481,  482,  483,  484
  485,  486,  487,  488,  489,  490,  491,  492,  493,  494,  495,  496,  497,  498,  499,  500
  501,  502,  503,  504,  505,  506,  507,  508,  509,  510,  511,  512,  513,  514,  515,  516
  517,  518,  519,  520,  521,  522,  523,  524,  525,  526,  527,  528,  529,  530,  531,  532
  533,  534,  535,  536,  537,  538,  539,  540,  541,  542,  543,  544,  545,  546,  547,  548
  549,  550,  551,  552,  553,  554,  555,  556,  557,  558,  559,  560,  561,  562,  563,  564
  565,  566,  567,  568,  569,  570,  571,  572,  573,  574,  575,  576,  577,  578,  579,  580
  581,  582,  583,  584,  585,  586,  587,  588,  589,  590,  591,  592,  593,  594,  595,  596
  597,  598,  599,  600,  601,  602,  603,  604,  605,  606,  607,  608,  609,  610,  611,  612
** ... 66 like lines cut
*Elset, elset=Set-15, generate
 269,  696,    1
*Nset, nset=Set-16
    1,    2,   15,   16,   17,   18,   19,   20,   21,   22,   23,   24,   25,   26,   27,   28
   29,   30,   31,   32,   33,   34,   35,   36,   37,   38,   39,   97,   98,   99,  100,  101
  102,  103,  104,  105,  106,  107,  108,  109,  110,  111,  112,  113,  114,  115,  116,  117
  118,  119,  120,  121,  122,  123,  124,  125,  126,  127,  128,  129,  130,  131,  132,  133
  134,  135,  136,  137,  138,  139,  140,  141,  142,  143,  144,  145,  146,  147,  148,  149
  373,  374,  375,  376,  377,  378,  379,  380,  381,  382,  383,  384,  385,  386,  387,  388
  389,  390,  391,  392,  393,  394,  395,  396,  397,  398,  399,  400,  401,  402,  403,  404
  405,  406,  407,  408,  409,  410,  411,  412,  413,  414,  415,  416,  417,  418,  419,  420
  421,  422,  423,  424,  425,  426,  427,  428,  429,  430,  431,  432,  433,  434,  435,  436
  437,  438,  439,  440,  441,  442,  443,  444,  445,  446,  447,  448,  449,  450,  451,  452
  453,  454,  455,  456,  457,  458,  459,  460,  461,  462,  463,  464,  465,  466,  467,  468
  469,  470,  471,  472,  473,  474,  475,  476,  477,  478,  479,  480,  481,  482,  483,  484
  485,  486,  487,  488,  489,  490,  491,  492,  493,  494,  495,  496,  497,  498,  499,  500
  501,  502,  503,  504,  505,  506,  507,  508,  509,  510,  511,  512,  513,  514,  515,  516
  517,  518,  519,  520,  521,  522,  523,  524,  525,  526,  527,  528,  529,  530,  531,  532
  533,  534,  535,  536,  537,  538,  539,  540,  541,  542,  543,  544,  545,  546,  547,  548
  549,  550,  551,  552,  553,  554,  555,  556,  557,  558,  559,  560,  561,  562,  563,  564
  565,  566,  567,  568,  569,  570,  571,  572,  573,  574,  575,  576,  577,  578,  579,  580
  581,  582,  583,  584,  585,  586,  587,  588,  589,  590,  591,  592,  593,  594,  595,  596
  597,  598,  599,  600,  601,  602,  603,  604,  605,  606,  607,  608,  609,  610,  611,  612
** ... 66 like lines cut
*Elset, elset=Set-16, generate
 269,  696,    1
*Nset, nset=Set-17
    1,    2,    3,    4,    5,    6,    7,    8,    9,   10,   11,   12,   13,   14,   19,   20
   21,   22,   23,   24,   25,   26,   27,   28,   29,   30,   31,   32,   33,   34,   35,   36
   37,   38,   39,   40,   41,   42,   43,   44,   45,   46,   47,   48,   49,   50,   51,   52
   53,   54,   55,   56,   57,   58,   59,   60,   61,   62,   63,   64,   65,   66,   67,   68
   69,   70,   71,   72,   73,   74,   75,   76,   77,   78,   79,   80,   81,   82,   83,   84
   85,   86,   87,   88,   89,   90,   91,   92,   93,   94,   95,   96,  150,  151,  152,  153
  154,  155,  156,  157,  158,  159,  160,  161,  162,  163,  164,  165,  166,  167,  168,  169
  170,  171,  172,  173,  174,  175,  176,  177,  178,  179,  180,  181,  182,  183,  184,  185
  186,  187,  188,  189,  190,  191,  192,  193,  194,  195,  196,  197,  198,  199,  200,  201
  202,  203,  204,  205,  206,  207,  208,  209,  210,  211,  212,  213,  214,  215,  216,  217
  218,  219,  220,  221,  222,  223,  224,  225,  226,  227,  228,  229,  230,  231,  232,  233
  234,  235,  236,  237,  238,  239,  240,  241,  242,  243,  244,  245,  246,  247,  248,  249
  250,  251,  252,  253,  254,  255,  256,  257,  258,  259,  260,  261,  262,  263,  264,  265
  266,  267,  268,  269,  270,  271,  272,  273,  274,  275,  276,  277,  278,  279,  280,  281
  282,  283,  284,  285,  286,  287,  288,  289,  290,  291,  292,  293,  294,  295,  296,  297
  298,  299,  300,  301,  302,  303,  304,  305,  306,  307,  308,  309,  310,  311,  312,  313
  314,  315,  316,  317,  318,  319,  320,  321,  322,  323,  324,  325,  326,  327,  328,  329
  330,  331,  332,  333,  334,  335,  336,  337,  338,  339,  340,  341,  342,  343,  344,  345
  346,  347,  348,  349,  350,  351,  352,  353,  354,  355,  356,  357,  358,  359,  360,  361
  362,  363,  364,  365,  366,  367,  368,  369,  370,  371,  372,  762,  763,  764,  765,  766
** ... 37 like lines cut
*Elset, elset=Set-17, generate
   1,  268,    1
** Section: Tit-imp-sect
*Solid Section, elset=Set-17, material=titanium
22.5,
** Section: Tit-imp-sect
*Solid Section, elset=Set-16, material=titanium
22.5,
*End Instance
**  
*Node
      1,  -3.69614005,   45.4868011,           0.
*Node
      2,    4.3951292,   21.2597332,           0.
*Node
      3,    29.897789,   36.7601395,           0.
*Nset, nset=BLAH-pontos-mat, instance=imp-osso-1
 2958, 3214
*Nset, nset=BLAH-pontos-mat, instance=implante-2-Copy4-1
  339, 2129
*Nset, nset=Set-105
 1,
*Nset, nset=Set-106
 3,
*Nset, nset=Set-107, instance=imp-osso-1
   15,   16,  163,  164,  165,  166,  167,  168,  169,  170,  171,  172,  173,  174,  175,  176
  177,  178,  179, 1704, 1711, 1920, 1924, 1961, 1985, 2023, 2048, 2464, 2465, 2472, 2474, 2476
 2481, 2595, 2602, 2604, 2606
*Elset, elset=Set-107, instance=imp-osso-1
 176, 178, 245, 246, 256, 263, 272, 279, 417, 418, 421, 422, 423, 425, 490, 496
 498, 500
*Nset, nset=m_Set-101
 1,
*Nset, nset=m_Set-102
 3,
*Nset, nset=m_Set-103
 2,
*Nset, nset=m_Set-104
 2,
*Elset, elset=_m_Surf-45_S4, internal, instance=implante-2-Copy4-1
 272, 282, 301, 303, 304, 317, 334
*Elset, elset=_m_Surf-45_S1, internal, instance=implante-2-Copy4-1
 305,
*Elset, elset=_m_Surf-45_S2, internal, instance=implante-2-Copy4-1
 316, 318, 335, 342
*Surface, type=ELEMENT, name=m_Surf-45
_m_Surf-45_S4, S4
_m_Surf-45_S1, S1
_m_Surf-45_S2, S2
*Elset, elset=_m_Surf-47_S3, internal, instance=implante-2-Copy4-1
   1,   2,  20,  23,  35,  36,  40,  41,  44,  45,  48,  49,  52,  53,  54,  56
  57,  60,  69,  83,  84,  88,  93,  98, 100
*Elset, elset=_m_Surf-47_S1, internal, instance=implante-2-Copy4-1
   8,  13,  22,  30,  33,  38,  39,  46,  47,  51,  59,  61,  67,  68,  70,  72
  74,  75,  76,  82,  85,  87,  89,  99, 101, 102, 107
*Elset, elset=_m_Surf-47_S2, internal, instance=implante-2-Copy4-1
   3,   4,   5,   7,  15,  16,  27,  28,  30,  31,  69, 267
*Elset, elset=_m_Surf-47_S4, internal, instance=implante-2-Copy4-1
   2,  17,  29,  45,  53, 129
*Surface, type=ELEMENT, name=m_Surf-47
_m_Surf-47_S3, S3
_m_Surf-47_S1, S1
_m_Surf-47_S2, S2
_m_Surf-47_S4, S4
*Elset, elset=_s_Surf-45_S2, internal, instance=imp-osso-1
  25, 232, 408
*Elset, elset=_s_Surf-45_S4, internal, instance=imp-osso-1
  26, 322, 441
*Elset, elset=_s_Surf-45_S1, internal, instance=imp-osso-1
  233,  440, 1014, 1015, 1016
*Surface, type=ELEMENT, name=s_Surf-45
_s_Surf-45_S2, S2
_s_Surf-45_S4, S4
_s_Surf-45_S1, S1
*Elset, elset=_s_Surf-47_S4, internal, instance=imp-osso-1
    1,    8,   19,   20,   22,   23,   30,   31,   36,   37,   38,   47,   49,   50,   51,  149
  328,  401,  402,  992, 1021, 1022, 1075
*Elset, elset=_s_Surf-47_S2, internal, instance=imp-osso-1
    7,   14,   57,   66,  147,  403,  404,  555,  558,  580,  991, 1016, 1017, 1018
*Elset, elset=_s_Surf-47_S3, internal, instance=imp-osso-1
   18,   20,   22,  106,  216,  405,  406,  528,  982,  983,  984,  992,  999, 1020, 1032, 1034
 1035, 1037, 1042, 1049
*Elset, elset=_s_Surf-47_S1, internal, instance=imp-osso-1
   25,   41,  215,  585,  586, 1005, 1019, 1021, 1023, 1024, 1041, 1046
*Surface, type=ELEMENT, name=s_Surf-47
_s_Surf-47_S4, S4
_s_Surf-47_S2, S2
_s_Surf-47_S3, S3
_s_Surf-47_S1, S1
*Elset, elset=_s_Surf-49_S2, internal, instance=implante-2-Copy4-1
 306, 353, 355
*Elset, elset=_s_Surf-49_S4, internal, instance=implante-2-Copy4-1
 374, 411
*Surface, type=ELEMENT, name=s_Surf-49
_s_Surf-49_S2, S2
_s_Surf-49_S4, S4
*Elset, elset=_s_Surf-50_S4, internal, instance=imp-osso-1
 318,
*Elset, elset=_s_Surf-50_S2, internal, instance=imp-osso-1
 438, 688
*Surface, type=ELEMENT, name=s_Surf-50
_s_Surf-50_S4, S4
_s_Surf-50_S2, S2
*Elset, elset=_s_Surf-51_S2, internal, instance=implante-2-Copy4-1
 306, 353, 355
*Elset, elset=_s_Surf-51_S4, internal, instance=implante-2-Copy4-1
 374, 411
*Surface, type=ELEMENT, name=s_Surf-51
_s_Surf-51_S2, S2
_s_Surf-51_S4, S4
*Elset, elset=_s_Surf-52_S4, internal, instance=imp-osso-1
 318,
*Elset, elset=_s_Surf-52_S2, internal, instance=imp-osso-1
 438, 688
*Surface, type=ELEMENT, name=s_Surf-52
_s_Surf-52_S4, S4
_s_Surf-52_S2, S2
** Constraint: Constraint-1
*Tie, name=Constraint-1, adjust=yes, type=SURFACE TO SURFACE
s_Surf-45, m_Surf-45
** Constraint: Constraint-2
*Tie, name=Constraint-2, adjust=yes, type=SURFACE TO SURFACE
s_Surf-47, m_Surf-47
** Constraint: Constraint-3
*Coupling, constraint name=Constraint-3, ref node=m_Set-101, surface=s_Surf-49
*Distributing, weighting method=UNIFORM
** Constraint: Constraint-4
*Coupling, constraint name=Constraint-4, ref node=m_Set-102, surface=s_Surf-50
*Distributing, weighting method=UNIFORM
** Constraint: Constraint-5
*Coupling, constraint name=Constraint-5, ref node=m_Set-103, surface=s_Surf-51
*Distributing, weighting method=UNIFORM
** Constraint: Constraint-6
*Coupling, constraint name=Constraint-6, ref node=m_Set-104, surface=s_Surf-52
*Distributing, weighting method=UNIFORM
*End Assembly
** 
** MATERIALS
** 
*Material, name=Co-Cr
*Elastic
230000., 0.3
*Material, name=alumina
*Elastic
380000., 0.21
*Material, name=osso-cortical
*Elastic
17000., 0.3
*Material, name=osso-trabecular
*Elastic
1380., 0.3
*Material, name=stainless-steel-316
*Elastic
200000., 0.3
*Material, name=titanium
*Elastic
110000., 0.3
** ----------------------------------------------------------------
** 
** STEP: Step-1
** 
*Step, name=Step-1, nlgeom=NO
*Static
1., 1., 1e-05, 1.
** 
** BOUNDARY CONDITIONS
** 
** Name: BC-1 Type: Symmetry/Antisymmetry/Encastre
*Boundary
Set-107, ENCASTRE
** 
** LOADS
** 
** Name: Load-1   Type: Concentrated force
*Cload
Set-105, 1, 150.
Set-105, 2, -259.
** Name: Load-2   Type: Concentrated force
*Cload
Set-106, 1, -50.
Set-106, 2, 89.
** 
** OUTPUT REQUESTS
** 
*Restart, write, frequency=0
** 
** FIELD OUTPUT: F-Output-1
** 
*Output, field, variable=PRESELECT
** 
** HISTORY OUTPUT: H-Output-1
** 
*Output, history, variable=PRESELECT
*End Step
