*Heading
** Job name: boneimp-CoCr Model name: Model-1
** Generated by: Abaqus/CAE 2022
*Preprint, echo=NO, model=NO, history=NO, contact=NO
**
** PARTS
**
*Part, name=imp-osso
*End Part
**  
*Part, name=implante-2-Copy4
*End Part
**  
**
** ASSEMBLY
**
*Assembly, name=Assembly
**  
*Instance, name=implante-2-Copy4-1, part=implante-2-Copy4
   13.871379,    -5.815267,           0.
*Node
      1,  -1.64397871,    42.175106
      2,  -25.1849537,   19.3163319
      3,   -22.618803,   16.6735973
      4,  -20.7349701,   18.4677505
      5,  -22.3520794,   20.1656876
      6,  -18.3190575,   24.0067215
      7,  -16.7019482,   22.3087826
      8,   1.35374999,   3.35059237
      9,   13.5375004,   14.9543428
     10,  -4.51819849,   33.9125328
     11,  -6.13530731,   35.6104736
     12,   -1.9432826,   39.6029396
     13, -0.326174021,   37.9049988
     14,   1.14336121,   39.3045807
     15,   4.69218206,   48.3276482
     16,   -13.868433,   52.2370377
     17,  -19.8016663,   50.4374771
     18,  -31.1362495,   13.5375004
     19,  -2.71402311,   41.1360703
     20,  -3.78406739,   40.0970345
** ... 2203 like lines cut
*Element, type=CPS8R
  1,  150,  364,   40,   41,  764,  765,  766,  767
  2,   43,  150,   42,    4,  768,  769,  770,  771
  3,   37,   44,   45,   36,  772,  773,  774,  775
  4,  151,   47,    7,  153,  776,  777,  778,  779
  5,   22,   91,   92,   21,  780,  781,  782,  783
  6,   19,   12,  363,    1,  784,  785,  786,  787
  7,  154,   94,   13,  152,  788,  789,  790,  791
  8,   95,   96,  154,  152,  792,  793,  791,  794
  9,  157,  158,   26,   27,  795,  796,  797,  798
 10,  153,  196,  367,  195,  799,  800,  801,  802
 11,  270,  219,  214,  261,  803,  804,  805,  806
 12,   30,   31,  197,  155,  807,  808,  809,  810
 13,    2,   40,  364,   39,  811,  765,  812,  813
 14,    5,   38,   39,  364,  814,  815,  812,  816
 15,   38,    5,   44,   37,  814,  817,  772,  818
 16,   36,   45,   46,   35,  774,  819,  820,  821
 17,    6,   34,   35,   46,  822,  823,  820,  824
 18,   34,    6,  200,   33,  822,  825,  826,  827
 19,  151,  153,  195,  200,  779,  802,  828,  829
 20,  151,  200,    6,   47,  829,  825,  830,  776
** ... 678 like lines cut
*Nset, nset=Set-1
    1,    2,   15,   16,   17,   18,   19,   20,   21,   22,   23,   24,   25,   26,   27,   28
   29,   30,   31,   32,   33,   34,   35,   36,   37,   38,   39,   97,   98,   99,  100,  101
  102,  103,  104,  105,  106,  107,  108,  109,  110,  111,  112,  113,  114,  115,  116,  117
  118,  119,  120,  121,  122,  123,  124,  125,  126,  127,  128,  129,  130,  131,  132,  133
  134,  135,  136,  137,  138,  139,  140,  141,  142,  143,  144,  145,  146,  147,  148,  149
  373,  374,  375,  376,  377,  378,  379,  380,  381,  382,  383,  384,  385,  386,  387,  388
  389,  390,  391,  392,  393,  394,  395,  396,  397,  398,  399,  400,  401,  402,  403,  404
  405,  406,  407,  408,  409,  410,  411,  412,  413,  414,  415,  416,  417,  418,  419,  420
  421,  422,  423,  424,  425,  426,  427,  428,  429,  430,  431,  432,  433,  434,  435,  436
  437,  438,  439,  440,  441,  442,  443,  444,  445,  446,  447,  448,  449,  450,  451,  452
  453,  454,  455,  456,  457,  458,  459,  460,  461,  462,  463,  464,  465,  466,  467,  468
  469,  470,  471,  472,  473,  474,  475,  476,  477,  478,  479,  480,  481,  482,  483,  484
  485,  486,  487,  488,  489,  490,  491,  492,  493,  494,  495,  496,  497,  498,  499,  500
  501,  502,  503,  504,  505,  506,  507,  508,  509,  510,  511,  512,  513,  514,  515,  516
  517,  518,  519,  520,  521,  522,  523,  524,  525,  526,  527,  528,  529,  530,  531,  532
  533,  534,  535,  536,  537,  538,  539,  540,  541,  542,  543,  544,  545,  546,  547,  548
  549,  550,  551,  552,  553,  554,  555,  556,  557,  558,  559,  560,  561,  562,  563,  564
  565,  566,  567,  568,  569,  570,  571,  572,  573,  574,  575,  576,  577,  578,  579,  580
  581,  582,  583,  584,  585,  586,  587,  588,  589,  590,  591,  592,  593,  594,  595,  596
  597,  598,  599,  600,  601,  602,  603,  604,  605,  606,  607,  608,  609,  610,  611,  612
** ... 66 like lines cut
*Elset, elset=Set-1, generate
 269,  698,    1
*Nset, nset=Set-2
    1,    2,    3,    4,    5,    6,    7,    8,    9,   10,   11,   12,   13,   14,   19,   20
   21,   22,   23,   24,   25,   26,   27,   28,   29,   30,   31,   32,   33,   34,   35,   36
   37,   38,   39,   40,   41,   42,   43,   44,   45,   46,   47,   48,   49,   50,   51,   52
   53,   54,   55,   56,   57,   58,   59,   60,   61,   62,   63,   64,   65,   66,   67,   68
   69,   70,   71,   72,   73,   74,   75,   76,   77,   78,   79,   80,   81,   82,   83,   84
   85,   86,   87,   88,   89,   90,   91,   92,   93,   94,   95,   96,  150,  151,  152,  153
  154,  155,  156,  157,  158,  159,  160,  161,  162,  163,  164,  165,  166,  167,  168,  169
  170,  171,  172,  173,  174,  175,  176,  177,  178,  179,  180,  181,  182,  183,  184,  185
  186,  187,  188,  189,  190,  191,  192,  193,  194,  195,  196,  197,  198,  199,  200,  201
  202,  203,  204,  205,  206,  207,  208,  209,  210,  211,  212,  213,  214,  215,  216,  217
  218,  219,  220,  221,  222,  223,  224,  225,  226,  227,  228,  229,  230,  231,  232,  233
  234,  235,  236,  237,  238,  239,  240,  241,  242,  243,  244,  245,  246,  247,  248,  249
  250,  251,  252,  253,  254,  255,  256,  257,  258,  259,  260,  261,  262,  263,  264,  265
  266,  267,  268,  269,  270,  271,  272,  273,  274,  275,  276,  277,  278,  279,  280,  281
  282,  283,  284,  285,  286,  287,  288,  289,  290,  291,  292,  293,  294,  295,  296,  297
  298,  299,  300,  301,  302,  303,  304,  305,  306,  307,  308,  309,  310,  311,  312,  313
  314,  315,  316,  317,  318,  319,  320,  321,  322,  323,  324,  325,  326,  327,  328,  329
  330,  331,  332,  333,  334,  335,  336,  337,  338,  339,  340,  341,  342,  343,  344,  345
  346,  347,  348,  349,  350,  351,  352,  353,  354,  355,  356,  357,  358,  359,  360,  361
  362,  363,  364,  365,  366,  367,  368,  369,  370,  371,  372,  764,  765,  766,  767,  768
** ... 37 like lines cut
*Elset, elset=Set-2, generate
   1,  268,    1
*Nset, nset=Set-3
    1,    2,   15,   16,   17,   18,   19,   20,   21,   22,   23,   24,   25,   26,   27,   28
   29,   30,   31,   32,   33,   34,   35,   36,   37,   38,   39,   97,   98,   99,  100,  101
  102,  103,  104,  105,  106,  107,  108,  109,  110,  111,  112,  113,  114,  115,  116,  117
  118,  119,  120,  121,  122,  123,  124,  125,  126,  127,  128,  129,  130,  131,  132,  133
  134,  135,  136,  137,  138,  139,  140,  141,  142,  143,  144,  145,  146,  147,  148,  149
  373,  374,  375,  376,  377,  378,  379,  380,  381,  382,  383,  384,  385,  386,  387,  388
  389,  390,  391,  392,  393,  394,  395,  396,  397,  398,  399,  400,  401,  402,  403,  404
  405,  406,  407,  408,  409,  410,  411,  412,  413,  414,  415,  416,  417,  418,  419,  420
  421,  422,  423,  424,  425,  426,  427,  428,  429,  430,  431,  432,  433,  434,  435,  436
  437,  438,  439,  440,  441,  442,  443,  444,  445,  446,  447,  448,  449,  450,  451,  452
  453,  454,  455,  456,  457,  458,  459,  460,  461,  462,  463,  464,  465,  466,  467,  468
  469,  470,  471,  472,  473,  474,  475,  476,  477,  478,  479,  480,  481,  482,  483,  484
  485,  486,  487,  488,  489,  490,  491,  492,  493,  494,  495,  496,  497,  498,  499,  500
  501,  502,  503,  504,  505,  506,  507,  508,  509,  510,  511,  512,  513,  514,  515,  516
  517,  518,  519,  520,  521,  522,  523,  524,  525,  526,  527,  528,  529,  530,  531,  532
  533,  534,  535,  536,  537,  538,  539,  540,  541,  542,  543,  544,  545,  546,  547,  548
  549,  550,  551,  552,  553,  554,  555,  556,  557,  558,  559,  560,  561,  562,  563,  564
  565,  566,  567,  568,  569,  570,  571,  572,  573,  574,  575,  576,  577,  578,  579,  580
  581,  582,  583,  584,  585,  586,  587,  588,  589,  590,  591,  592,  593,  594,  595,  596
  597,  598,  599,  600,  601,  602,  603,  604,  605,  606,  607,  608,  609,  610,  611,  612
** ... 66 like lines cut
*Elset, elset=Set-3, generate
 269,  698,    1
*Nset, nset=Set-4
    1,    2,   15,   16,   17,   18,   19,   20,   21,   22,   23,   24,   25,   26,   27,   28
   29,   30,   31,   32,   33,   34,   35,   36,   37,   38,   39,   97,   98,   99,  100,  101
  102,  103,  104,  105,  106,  107,  108,  109,  110,  111,  112,  113,  114,  115,  116,  117
  118,  119,  120,  121,  122,  123,  124,  125,  126,  127,  128,  129,  130,  131,  132,  133
  134,  135,  136,  137,  138,  139,  140,  141,  142,  143,  144,  145,  146,  147,  148,  149
  373,  374,  375,  376,  377,  378,  379,  380,  381,  382,  383,  384,  385,  386,  387,  388
  389,  390,  391,  392,  393,  394,  395,  396,  397,  398,  399,  400,  401,  402,  403,  404
  405,  406,  407,  408,  409,  410,  411,  412,  413,  414,  415,  416,  417,  418,  419,  420
  421,  422,  423,  424,  425,  426,  427,  428,  429,  430,  431,  432,  433,  434,  435,  436
  437,  438,  439,  440,  441,  442,  443,  444,  445,  446,  447,  448,  449,  450,  451,  452
  453,  454,  455,  456,  457,  458,  459,  460,  461,  462,  463,  464,  465,  466,  467,  468
  469,  470,  471,  472,  473,  474,  475,  476,  477,  478,  479,  480,  481,  482,  483,  484
  485,  486,  487,  488,  489,  490,  491,  492,  493,  494,  495,  496,  497,  498,  499,  500
  501,  502,  503,  504,  505,  506,  507,  508,  509,  510,  511,  512,  513,  514,  515,  516
  517,  518,  519,  520,  521,  522,  523,  524,  525,  526,  527,  528,  529,  530,  531,  532
  533,  534,  535,  536,  537,  538,  539,  540,  541,  542,  543,  544,  545,  546,  547,  548
  549,  550,  551,  552,  553,  554,  555,  556,  557,  558,  559,  560,  561,  562,  563,  564
  565,  566,  567,  568,  569,  570,  571,  572,  573,  574,  575,  576,  577,  578,  579,  580
  581,  582,  583,  584,  585,  586,  587,  588,  589,  590,  591,  592,  593,  594,  595,  596
  597,  598,  599,  600,  601,  602,  603,  604,  605,  606,  607,  608,  609,  610,  611,  612
** ... 66 like lines cut
*Elset, elset=Set-4, generate
 269,  698,    1
*Nset, nset=Set-5
    1,    2,    3,    4,    5,    6,    7,    8,    9,   10,   11,   12,   13,   14,   19,   20
   21,   22,   23,   24,   25,   26,   27,   28,   29,   30,   31,   32,   33,   34,   35,   36
   37,   38,   39,   40,   41,   42,   43,   44,   45,   46,   47,   48,   49,   50,   51,   52
   53,   54,   55,   56,   57,   58,   59,   60,   61,   62,   63,   64,   65,   66,   67,   68
   69,   70,   71,   72,   73,   74,   75,   76,   77,   78,   79,   80,   81,   82,   83,   84
   85,   86,   87,   88,   89,   90,   91,   92,   93,   94,   95,   96,  150,  151,  152,  153
  154,  155,  156,  157,  158,  159,  160,  161,  162,  163,  164,  165,  166,  167,  168,  169
  170,  171,  172,  173,  174,  175,  176,  177,  178,  179,  180,  181,  182,  183,  184,  185
  186,  187,  188,  189,  190,  191,  192,  193,  194,  195,  196,  197,  198,  199,  200,  201
  202,  203,  204,  205,  206,  207,  208,  209,  210,  211,  212,  213,  214,  215,  216,  217
  218,  219,  220,  221,  222,  223,  224,  225,  226,  227,  228,  229,  230,  231,  232,  233
  234,  235,  236,  237,  238,  239,  240,  241,  242,  243,  244,  245,  246,  247,  248,  249
  250,  251,  252,  253,  254,  255,  256,  257,  258,  259,  260,  261,  262,  263,  264,  265
  266,  267,  268,  269,  270,  271,  272,  273,  274,  275,  276,  277,  278,  279,  280,  281
  282,  283,  284,  285,  286,  287,  288,  289,  290,  291,  292,  293,  294,  295,  296,  297
  298,  299,  300,  301,  302,  303,  304,  305,  306,  307,  308,  309,  310,  311,  312,  313
  314,  315,  316,  317,  318,  319,  320,  321,  322,  323,  324,  325,  326,  327,  328,  329
  330,  331,  332,  333,  334,  335,  336,  337,  338,  339,  340,  341,  342,  343,  344,  345
  346,  347,  348,  349,  350,  351,  352,  353,  354,  355,  356,  357,  358,  359,  360,  361
  362,  363,  364,  365,  366,  367,  368,  369,  370,  371,  372,  764,  765,  766,  767,  768
** ... 37 like lines cut
*Elset, elset=Set-5, generate
   1,  268,    1
*Nset, nset=Set-6
    1,    2,    3,    4,    5,    6,    7,    8,    9,   10,   11,   12,   13,   14,   19,   20
   21,   22,   23,   24,   25,   26,   27,   28,   29,   30,   31,   32,   33,   34,   35,   36
   37,   38,   39,   40,   41,   42,   43,   44,   45,   46,   47,   48,   49,   50,   51,   52
   53,   54,   55,   56,   57,   58,   59,   60,   61,   62,   63,   64,   65,   66,   67,   68
   69,   70,   71,   72,   73,   74,   75,   76,   77,   78,   79,   80,   81,   82,   83,   84
   85,   86,   87,   88,   89,   90,   91,   92,   93,   94,   95,   96,  150,  151,  152,  153
  154,  155,  156,  157,  158,  159,  160,  161,  162,  163,  164,  165,  166,  167,  168,  169
  170,  171,  172,  173,  174,  175,  176,  177,  178,  179,  180,  181,  182,  183,  184,  185
  186,  187,  188,  189,  190,  191,  192,  193,  194,  195,  196,  197,  198,  199,  200,  201
  202,  203,  204,  205,  206,  207,  208,  209,  210,  211,  212,  213,  214,  215,  216,  217
  218,  219,  220,  221,  222,  223,  224,  225,  226,  227,  228,  229,  230,  231,  232,  233
  234,  235,  236,  237,  238,  239,  240,  241,  242,  243,  244,  245,  246,  247,  248,  249
  250,  251,  252,  253,  254,  255,  256,  257,  258,  259,  260,  261,  262,  263,  264,  265
  266,  267,  268,  269,  270,  271,  272,  273,  274,  275,  276,  277,  278,  279,  280,  281
  282,  283,  284,  285,  286,  287,  288,  289,  290,  291,  292,  293,  294,  295,  296,  297
  298,  299,  300,  301,  302,  303,  304,  305,  306,  307,  308,  309,  310,  311,  312,  313
  314,  315,  316,  317,  318,  319,  320,  321,  322,  323,  324,  325,  326,  327,  328,  329
  330,  331,  332,  333,  334,  335,  336,  337,  338,  339,  340,  341,  342,  343,  344,  345
  346,  347,  348,  349,  350,  351,  352,  353,  354,  355,  356,  357,  358,  359,  360,  361
  362,  363,  364,  365,  366,  367,  368,  369,  370,  371,  372,  764,  765,  766,  767,  768
** ... 37 like lines cut
*Elset, elset=Set-6, generate
   1,  268,    1
*Nset, nset=Set-7, generate
    1,  2223,     1
*Elset, elset=Set-7, generate
   1,  698,    1
*Nset, nset=Set-8
    1,    2,   15,   16,   17,   18,   19,   20,   21,   22,   23,   24,   25,   26,   27,   28
   29,   30,   31,   32,   33,   34,   35,   36,   37,   38,   39,   97,   98,   99,  100,  101
  102,  103,  104,  105,  106,  107,  108,  109,  110,  111,  112,  113,  114,  115,  116,  117
  118,  119,  120,  121,  122,  123,  124,  125,  126,  127,  128,  129,  130,  131,  132,  133
  134,  135,  136,  137,  138,  139,  140,  141,  142,  143,  144,  145,  146,  147,  148,  149
  373,  374,  375,  376,  377,  378,  379,  380,  381,  382,  383,  384,  385,  386,  387,  388
  389,  390,  391,  392,  393,  394,  395,  396,  397,  398,  399,  400,  401,  402,  403,  404
  405,  406,  407,  408,  409,  410,  411,  412,  413,  414,  415,  416,  417,  418,  419,  420
  421,  422,  423,  424,  425,  426,  427,  428,  429,  430,  431,  432,  433,  434,  435,  436
  437,  438,  439,  440,  441,  442,  443,  444,  445,  446,  447,  448,  449,  450,  451,  452
  453,  454,  455,  456,  457,  458,  459,  460,  461,  462,  463,  464,  465,  466,  467,  468
  469,  470,  471,  472,  473,  474,  475,  476,  477,  478,  479,  480,  481,  482,  483,  484
  485,  486,  487,  488,  489,  490,  491,  492,  493,  494,  495,  496,  497,  498,  499,  500
  501,  502,  503,  504,  505,  506,  507,  508,  509,  510,  511,  512,  513,  514,  515,  516
  517,  518,  519,  520,  521,  522,  523,  524,  525,  526,  527,  528,  529,  530,  531,  532
  533,  534,  535,  536,  537,  538,  539,  540,  541,  542,  543,  544,  545,  546,  547,  548
  549,  550,  551,  552,  553,  554,  555,  556,  557,  558,  559,  560,  561,  562,  563,  564
  565,  566,  567,  568,  569,  570,  571,  572,  573,  574,  575,  576,  577,  578,  579,  580
  581,  582,  583,  584,  585,  586,  587,  588,  589,  590,  591,  592,  593,  594,  595,  596
  597,  598,  599,  600,  601,  602,  603,  604,  605,  606,  607,  608,  609,  610,  611,  612
** ... 66 like lines cut
*Elset, elset=Set-8, generate
 269,  698,    1
*Nset, nset=Set-9
    1,    2,    3,    4,    5,    6,    7,    8,    9,   10,   11,   12,   13,   14,   19,   20
   21,   22,   23,   24,   25,   26,   27,   28,   29,   30,   31,   32,   33,   34,   35,   36
   37,   38,   39,   40,   41,   42,   43,   44,   45,   46,   47,   48,   49,   50,   51,   52
   53,   54,   55,   56,   57,   58,   59,   60,   61,   62,   63,   64,   65,   66,   67,   68
   69,   70,   71,   72,   73,   74,   75,   76,   77,   78,   79,   80,   81,   82,   83,   84
   85,   86,   87,   88,   89,   90,   91,   92,   93,   94,   95,   96,  150,  151,  152,  153
  154,  155,  156,  157,  158,  159,  160,  161,  162,  163,  164,  165,  166,  167,  168,  169
  170,  171,  172,  173,  174,  175,  176,  177,  178,  179,  180,  181,  182,  183,  184,  185
  186,  187,  188,  189,  190,  191,  192,  193,  194,  195,  196,  197,  198,  199,  200,  201
  202,  203,  204,  205,  206,  207,  208,  209,  210,  211,  212,  213,  214,  215,  216,  217
  218,  219,  220,  221,  222,  223,  224,  225,  226,  227,  228,  229,  230,  231,  232,  233
  234,  235,  236,  237,  238,  239,  240,  241,  242,  243,  244,  245,  246,  247,  248,  249
  250,  251,  252,  253,  254,  255,  256,  257,  258,  259,  260,  261,  262,  263,  264,  265
  266,  267,  268,  269,  270,  271,  272,  273,  274,  275,  276,  277,  278,  279,  280,  281
  282,  283,  284,  285,  286,  287,  288,  289,  290,  291,  292,  293,  294,  295,  296,  297
  298,  299,  300,  301,  302,  303,  304,  305,  306,  307,  308,  309,  310,  311,  312,  313
  314,  315,  316,  317,  318,  319,  320,  321,  322,  323,  324,  325,  326,  327,  328,  329
  330,  331,  332,  333,  334,  335,  336,  337,  338,  339,  340,  341,  342,  343,  344,  345
  346,  347,  348,  349,  350,  351,  352,  353,  354,  355,  356,  357,  358,  359,  360,  361
  362,  363,  364,  365,  366,  367,  368,  369,  370,  371,  372,  764,  765,  766,  767,  768
** ... 37 like lines cut
*Elset, elset=Set-9, generate
   1,  268,    1
*Nset, nset=Set-10
    1,    2,    3,    4,    5,    6,    7,    8,    9,   10,   11,   12,   13,   14,   19,   20
   21,   22,   23,   24,   25,   26,   27,   28,   29,   30,   31,   32,   33,   34,   35,   36
   37,   38,   39,   40,   41,   42,   43,   44,   45,   46,   47,   48,   49,   50,   51,   52
   53,   54,   55,   56,   57,   58,   59,   60,   61,   62,   63,   64,   65,   66,   67,   68
   69,   70,   71,   72,   73,   74,   75,   76,   77,   78,   79,   80,   81,   82,   83,   84
   85,   86,   87,   88,   89,   90,   91,   92,   93,   94,   95,   96,  150,  151,  152,  153
  154,  155,  156,  157,  158,  159,  160,  161,  162,  163,  164,  165,  166,  167,  168,  169
  170,  171,  172,  173,  174,  175,  176,  177,  178,  179,  180,  181,  182,  183,  184,  185
  186,  187,  188,  189,  190,  191,  192,  193,  194,  195,  196,  197,  198,  199,  200,  201
  202,  203,  204,  205,  206,  207,  208,  209,  210,  211,  212,  213,  214,  215,  216,  217
  218,  219,  220,  221,  222,  223,  224,  225,  226,  227,  228,  229,  230,  231,  232,  233
  234,  235,  236,  237,  238,  239,  240,  241,  242,  243,  244,  245,  246,  247,  248,  249
  250,  251,  252,  253,  254,  255,  256,  257,  258,  259,  260,  261,  262,  263,  264,  265
  266,  267,  268,  269,  270,  271,  272,  273,  274,  275,  276,  277,  278,  279,  280,  281
  282,  283,  284,  285,  286,  287,  288,  289,  290,  291,  292,  293,  294,  295,  296,  297
  298,  299,  300,  301,  302,  303,  304,  305,  306,  307,  308,  309,  310,  311,  312,  313
  314,  315,  316,  317,  318,  319,  320,  321,  322,  323,  324,  325,  326,  327,  328,  329
  330,  331,  332,  333,  334,  335,  336,  337,  338,  339,  340,  341,  342,  343,  344,  345
  346,  347,  348,  349,  350,  351,  352,  353,  354,  355,  356,  357,  358,  359,  360,  361
  362,  363,  364,  365,  366,  367,  368,  369,  370,  371,  372,  764,  765,  766,  767,  768
** ... 37 like lines cut
*Elset, elset=Set-10, generate
   1,  268,    1
*Nset, nset=Set-11
    1,    2,    3,    4,    5,    6,    7,    8,    9,   10,   11,   12,   13,   14,   19,   20
   21,   22,   23,   24,   25,   26,   27,   28,   29,   30,   31,   32,   33,   34,   35,   36
   37,   38,   39,   40,   41,   42,   43,   44,   45,   46,   47,   48,   49,   50,   51,   52
   53,   54,   55,   56,   57,   58,   59,   60,   61,   62,   63,   64,   65,   66,   67,   68
   69,   70,   71,   72,   73,   74,   75,   76,   77,   78,   79,   80,   81,   82,   83,   84
   85,   86,   87,   88,   89,   90,   91,   92,   93,   94,   95,   96,  150,  151,  152,  153
  154,  155,  156,  157,  158,  159,  160,  161,  162,  163,  164,  165,  166,  167,  168,  169
  170,  171,  172,  173,  174,  175,  176,  177,  178,  179,  180,  181,  182,  183,  184,  185
  186,  187,  188,  189,  190,  191,  192,  193,  194,  195,  196,  197,  198,  199,  200,  201
  202,  203,  204,  205,  206,  207,  208,  209,  210,  211,  212,  213,  214,  215,  216,  217
  218,  219,  220,  221,  222,  223,  224,  225,  226,  227,  228,  229,  230,  231,  232,  233
  234,  235,  236,  237,  238,  239,  240,  241,  242,  243,  244,  245,  246,  247,  248,  249
  250,  251,  252,  253,  254,  255,  256,  257,  258,  259,  260,  261,  262,  263,  264,  265
  266,  267,  268,  269,  270,  271,  272,  273,  274,  275,  276,  277,  278,  279,  280,  281
  282,  283,  284,  285,  286,  287,  288,  289,  290,  291,  292,  293,  294,  295,  296,  297
  298,  299,  300,  301,  302,  303,  304,  305,  306,  307,  308,  309,  310,  311,  312,  313
  314,  315,  316,  317,  318,  319,  320,  321,  322,  323,  324,  325,  326,  327,  328,  329
  330,  331,  332,  333,  334,  335,  336,  337,  338,  339,  340,  341,  342,  343,  344,  345
  346,  347,  348,  349,  350,  351,  352,  353,  354,  355,  356,  357,  358,  359,  360,  361
  362,  363,  364,  365,  366,  367,  368,  369,  370,  371,  372,  764,  765,  766,  767,  768
** ... 37 like lines cut
*Elset, elset=Set-11, generate
   1,  268,    1
*Nset, nset=Set-12
    1,    2,    3,    4,    5,    6,    7,    8,    9,   10,   11,   12,   13,   14,   19,   20
   21,   22,   23,   24,   25,   26,   27,   28,   29,   30,   31,   32,   33,   34,   35,   36
   37,   38,   39,   40,   41,   42,   43,   44,   45,   46,   47,   48,   49,   50,   51,   52
   53,   54,   55,   56,   57,   58,   59,   60,   61,   62,   63,   64,   65,   66,   67,   68
   69,   70,   71,   72,   73,   74,   75,   76,   77,   78,   79,   80,   81,   82,   83,   84
   85,   86,   87,   88,   89,   90,   91,   92,   93,   94,   95,   96,  150,  151,  152,  153
  154,  155,  156,  157,  158,  159,  160,  161,  162,  163,  164,  165,  166,  167,  168,  169
  170,  171,  172,  173,  174,  175,  176,  177,  178,  179,  180,  181,  182,  183,  184,  185
  186,  187,  188,  189,  190,  191,  192,  193,  194,  195,  196,  197,  198,  199,  200,  201
  202,  203,  204,  205,  206,  207,  208,  209,  210,  211,  212,  213,  214,  215,  216,  217
  218,  219,  220,  221,  222,  223,  224,  225,  226,  227,  228,  229,  230,  231,  232,  233
  234,  235,  236,  237,  238,  239,  240,  241,  242,  243,  244,  245,  246,  247,  248,  249
  250,  251,  252,  253,  254,  255,  256,  257,  258,  259,  260,  261,  262,  263,  264,  265
  266,  267,  268,  269,  270,  271,  272,  273,  274,  275,  276,  277,  278,  279,  280,  281
  282,  283,  284,  285,  286,  287,  288,  289,  290,  291,  292,  293,  294,  295,  296,  297
  298,  299,  300,  301,  302,  303,  304,  305,  306,  307,  308,  309,  310,  311,  312,  313
  314,  315,  316,  317,  318,  319,  320,  321,  322,  323,  324,  325,  326,  327,  328,  329
  330,  331,  332,  333,  334,  335,  336,  337,  338,  339,  340,  341,  342,  343,  344,  345
  346,  347,  348,  349,  350,  351,  352,  353,  354,  355,  356,  357,  358,  359,  360,  361
  362,  363,  364,  365,  366,  367,  368,  369,  370,  371,  372,  764,  765,  766,  767,  768
** ... 37 like lines cut
*Elset, elset=Set-12, generate
   1,  268,    1
** Section: CoCr-imp-section
*Solid Section, elset=Set-12, material=Co-Cr
11.5,
** Section: CoCr-imp-section
*Solid Section, elset=Set-8, material=Co-Cr
11.5,
*End Instance
**  
*Instance, name=imp-osso-1, part=imp-osso
*Node
      1,   9.75546551,   3.27838326
      2,  -2.83056974,   16.4935169
      3,  -4.44767809,   18.1914539
      4,  -8.48070049,    14.350421
      5,  -6.86359215,   12.6524839
      6,  -8.74742413,   10.8583298
      7,  -11.3135748,   13.5010653
      8,  -13.6788836,   11.2043009
      9,  -9.86786747,   4.68479967
     10,   1.60713303,  -5.21631813
     11,   25.1814842,   11.4778042
     12,   27.4088783,   9.13907623
     13,   15.2251291,  -2.46467447
     14,  -17.1640549,   7.82012701
     15,        -3.75,        -42.5
     16,         22.5,        -42.5
     17,   31.6940308,   35.0672302
     18,   28.4635677,   37.6894455
     19,   18.4082909,   42.3616104
     20,   15.4231606,    39.462986
** ... 3505 like lines cut
*Element, type=CPS8R
  1,   29,  312,  295,   28, 1210, 1211, 1212, 1213
  2,   56,   57,  298,  299, 1214, 1215, 1216, 1217
  3,   53,   54,  301,  302, 1218, 1219, 1220, 1221
  4,  294,  293,   48,   49, 1222, 1223, 1224, 1225
  5,   48,  293,  292,   47, 1223, 1226, 1227, 1228
  6,  348,  314,  292,  293, 1229, 1230, 1226, 1231
  7,  357,   39,   40,  291, 1232, 1233, 1234, 1235
  8,   38,  357,  288,    2, 1236, 1237, 1238, 1239
  9,  297,   58,   59,  296, 1240, 1241, 1242, 1243
 10,  306,  319,  359,  312, 1244, 1245, 1246, 1247
 11,  297,  298,   57,   58, 1248, 1215, 1249, 1240
 12,  297,  319,  320,  298, 1250, 1251, 1252, 1248
 13,  320,  321,  299,  298, 1253, 1254, 1216, 1252
 14,  309,   35,   36,  305, 1255, 1256, 1257, 1258
 15,   54,   55,  300,  301, 1259, 1260, 1261, 1219
 16,  364,  338,  321,  320, 1262, 1263, 1253, 1264
 17,  309,  363,  334,  311, 1265, 1266, 1267, 1268
 18,  313,  305,   36,   37, 1269, 1257, 1270, 1271
 19,    2,  288,  313,   37, 1238, 1272, 1271, 1273
 20,   39,  357,   38,    3, 1232, 1236, 1274, 1275
** ... 1088 like lines cut
*Nset, nset=Set-1
    1,    2,    3,    4,    5,    6,    7,    8,    9,   10,   11,   20,   21,   22,   23,   24
   25,   26,   27,   28,   29,   30,   31,   32,   33,   34,   35,   36,   37,   38,   39,   40
   41,   42,   43,   44,   45,   46,   47,   48,   49,   50,   51,   52,   53,   54,   55,   56
   57,   58,   59,   60,   61,   62,   63,   64,   65,   66,   67,   68,   69,   70,   71,   72
   73,   74,   75,   76,   77,   78,   79,   80,   81,   82,   83,   84,   85,   86,   87,   88
   89,   90,   91,   92,   93,   94,   95,   96,   97,   98,   99,  100,  101,  102,  103,  104
  105,  106,  107,  108,  243,  244,  245,  246,  247,  248,  249,  250,  251,  252,  253,  254
  255,  256,  257,  258,  259,  260,  261,  262,  263,  264,  265,  266,  267,  268,  269,  270
  271,  272,  273,  274,  275,  276,  277,  278,  279,  280,  281,  282,  283,  284,  285,  286
  287,  288,  289,  290,  291,  292,  293,  294,  295,  296,  297,  298,  299,  300,  301,  302
  303,  304,  305,  306,  307,  308,  309,  310,  311,  312,  313,  314,  315,  316,  317,  318
  319,  320,  321,  322,  323,  324,  325,  326,  327,  328,  329,  330,  331,  332,  333,  334
  335,  336,  337,  338,  339,  340,  341,  342,  343,  344,  345,  346,  347,  348,  349,  350
  351,  352,  353,  354,  355,  356,  357,  358,  359,  360,  361,  362,  363,  364,  365,  366
  367,  963,  964,  965,  966,  967,  968,  969,  970,  971,  972,  973,  974,  975,  976,  977
  978,  979,  980,  981,  982,  983,  984,  985,  986,  987,  988,  989,  990,  991,  992,  993
  994,  995,  996,  997,  998,  999, 1000, 1001, 1002, 1003, 1004, 1005, 1006, 1007, 1008, 1009
 1010, 1011, 1012, 1013, 1014, 1015, 1016, 1017, 1018, 1019, 1020, 1021, 1022, 1023, 1024, 1025
 1026, 1027, 1028, 1029, 1030, 1031, 1032, 1033, 1034, 1035, 1036, 1037, 1038, 1039, 1040, 1041
 1042, 1043, 1044, 1045, 1046, 1047, 1048, 1049, 1050, 1051, 1052, 1053, 1054, 1055, 1056, 1057
** ... 64 like lines cut
*Elset, elset=Set-1
    1,    2,    3,    4,    5,    6,    7,    8,    9,   10,   11,   12,   13,   14,   15,   16
   17,   18,   19,   20,   21,   22,   23,   24,   25,   26,   27,   28,   29,   30,   31,   32
   33,   34,   35,   36,   37,   38,   39,   40,   41,   42,   43,   44,   45,   46,   47,   48
   49,   50,   51,   52,   53,   54,   55,   56,   57,   58,   59,   60,   61,   62,   63,   64
   65,   66,   67,   68,   69,   70,   71,   72,   73,   74,   75,   76,   77,   78,   79,   80
   81,   82,   83,   84,   85,   86,   87,   88,   89,   90,   91,   92,   93,   94,   95,   96
   97,   98,   99,  100,  101,  102,  814,  815,  816,  817,  818,  819,  820,  821,  822,  823
  824,  825,  826,  827,  828,  829,  830,  831,  832,  833,  834,  835,  836,  837,  838,  839
  840,  841,  842,  843,  844,  845,  846,  847,  848,  849,  850,  851,  852,  853,  854,  855
  856,  857,  858,  859,  860,  861,  862,  863,  864,  865,  866,  867,  868,  869,  870,  871
  872,  873,  874,  875,  876,  877,  878,  879,  880,  881,  882,  883,  884,  885,  886,  887
  888,  889,  890,  891,  892,  893,  894,  895,  896,  897,  898,  899,  900,  901,  902,  903
  904,  905,  906,  907,  908,  909,  910,  911,  912,  913,  914,  915,  916,  917,  918,  919
  920,  921,  922,  923,  924,  925,  926,  927,  928,  929,  930,  931,  932,  933,  934,  935
  936,  937,  938,  939,  940,  941,  942,  943,  944,  945,  946,  947,  948,  949,  950,  951
  952,  953,  954,  955,  956,  957,  958,  959,  960,  961,  962,  963,  964,  965,  966,  967
  968,  969,  970,  971,  972,  973,  974,  975,  976,  977,  978,  979,  980,  981,  982,  983
  984,  985,  986,  987,  988,  989,  990,  991,  992,  993,  994,  995,  996,  997,  998,  999
 1000, 1001, 1002, 1003, 1004, 1005, 1006, 1007, 1008, 1009, 1010, 1011, 1012, 1013, 1014, 1015
 1016, 1017, 1018, 1019, 1020, 1021, 1022, 1023, 1024, 1025, 1026, 1027, 1028, 1029, 1030, 1031
** ... 5 like lines cut
*Nset, nset=Set-2
    1,    8,    9,   10,   11,   12,   13,   14,   15,   16,   17,   18,   19,   20,   46,   47
   48,   49,   50,   51,   52,   53,   54,   55,   56,   57,   58,   59,   60,   61,   62,   63
   64,   65,   66,   67,   68,   69,   70,   71,   72,   73,   74,   75,   76,   77,   78,   79
   80,   81,   82,   83,   84,   85,   86,   87,   88,   89,   90,   91,   92,   93,   94,   95
   96,   97,   98,   99,  100,  101,  102,  103,  104,  105,  106,  107,  108,  109,  110,  111
  112,  113,  114,  115,  116,  117,  118,  119,  120,  121,  122,  123,  124,  125,  126,  127
  128,  129,  130,  131,  132,  133,  134,  135,  136,  137,  138,  139,  140,  141,  142,  143
  144,  145,  146,  147,  148,  149,  150,  151,  152,  153,  154,  155,  156,  157,  158,  159
  160,  161,  162,  163,  164,  165,  166,  167,  168,  169,  170,  171,  172,  173,  174,  175
  176,  177,  178,  179,  180,  181,  182,  183,  184,  185,  186,  187,  188,  189,  190,  191
  192,  193,  194,  195,  196,  197,  198,  199,  200,  201,  202,  203,  204,  205,  206,  207
  208,  209,  210,  211,  212,  213,  214,  215,  216,  217,  218,  219,  220,  221,  222,  223
  224,  225,  226,  227,  228,  229,  230,  231,  232,  233,  234,  235,  236,  237,  238,  239
  240,  241,  242,  243,  244,  245,  246,  247,  248,  249,  250,  251,  252,  253,  254,  255
  256,  257,  258,  259,  260,  261,  262,  263,  368,  369,  370,  371,  372,  373,  374,  375
  376,  377,  378,  379,  380,  381,  382,  383,  384,  385,  386,  387,  388,  389,  390,  391
  392,  393,  394,  395,  396,  397,  398,  399,  400,  401,  402,  403,  404,  405,  406,  407
  408,  409,  410,  411,  412,  413,  414,  415,  416,  417,  418,  419,  420,  421,  422,  423
  424,  425,  426,  427,  428,  429,  430,  431,  432,  433,  434,  435,  436,  437,  438,  439
  440,  441,  442,  443,  444,  445,  446,  447,  448,  449,  450,  451,  452,  453,  454,  455
** ... 128 like lines cut
*Elset, elset=Set-2, generate
 103,  813,    1
** Section: osso-trabecular-sect
*Solid Section, elset=Set-1, material=osso-trabecular
22.5,
** Section: osso-section
*Solid Section, elset=Set-2, material=osso-cortical
22.5,
*End Instance
**  
*Node
      1,    4.3951292,   21.2597332,           0.
*Node
      2,  -3.01847649,   45.7026863,           0.
*Node
      3,     30.20298,   36.5286903,           0.
*Nset, nset=Set-74, instance=imp-osso-1
   15,   16,  164,  165,  166,  167,  168,  169,  170,  171,  172,  173,  174,  175,  176,  177
  178,  179,  180, 1688, 1695, 1921, 1925, 1952, 1982, 2013, 2042, 2434, 2435, 2443, 2445, 2447
 2452, 2598, 2605, 2607, 2609
*Elset, elset=Set-74, instance=imp-osso-1
 173, 175, 246, 247, 254, 263, 271, 279, 413, 414, 417, 418, 419, 421, 500, 506
 508, 510
*Nset, nset=Set-75
 2,
*Nset, nset=Set-76
 3,
*Nset, nset=m_Set-70
 2,
*Nset, nset=m_Set-71
 3,
*Nset, nset=m_Set-72
 1,
*Nset, nset=m_Set-73
 1,
*Nset, nset=pontos-tensao, instance=imp-osso-1
 2874, 3175
*Nset, nset=pontos-tensao, instance=implante-2-Copy4-1
 1288, 2197
*Elset, elset=_m_Surf-19_S4, internal, instance=implante-2-Copy4-1
 272, 301, 304, 316, 317, 335
*Elset, elset=_m_Surf-19_S3, internal, instance=implante-2-Copy4-1
 303,
*Elset, elset=_m_Surf-19_S1, internal, instance=implante-2-Copy4-1
 305,
*Elset, elset=_m_Surf-19_S2, internal, instance=implante-2-Copy4-1
 283, 315, 336, 341
*Surface, type=ELEMENT, name=m_Surf-19
_m_Surf-19_S4, S4
_m_Surf-19_S3, S3
_m_Surf-19_S2, S2
_m_Surf-19_S1, S1
*Elset, elset=_m_Surf-21_S3, internal, instance=implante-2-Copy4-1
   1,   2,  20,  23,  35,  36,  40,  41,  44,  45,  48,  49,  52,  53,  54,  56
  57,  60,  69,  83,  84,  88,  93,  98, 100
*Elset, elset=_m_Surf-21_S1, internal, instance=implante-2-Copy4-1
   8,  13,  22,  30,  33,  38,  39,  46,  47,  51,  59,  61,  67,  68,  70,  72
  74,  75,  76,  82,  85,  87,  89,  99, 101, 102, 107
*Elset, elset=_m_Surf-21_S2, internal, instance=implante-2-Copy4-1
   3,   4,   5,   7,  15,  16,  27,  28,  30,  31,  69, 267
*Elset, elset=_m_Surf-21_S4, internal, instance=implante-2-Copy4-1
   2,  17,  29,  45,  53, 129
*Surface, type=ELEMENT, name=m_Surf-21
_m_Surf-21_S3, S3
_m_Surf-21_S1, S1
_m_Surf-21_S2, S2
_m_Surf-21_S4, S4
*Elset, elset=_s_Surf-19_S2, internal, instance=imp-osso-1
  25, 233, 401
*Elset, elset=_s_Surf-19_S4, internal, instance=imp-osso-1
  26, 234, 314, 444
*Elset, elset=_s_Surf-19_S3, internal, instance=imp-osso-1
 609,
*Elset, elset=_s_Surf-19_S1, internal, instance=imp-osso-1, generate
 1000,  1002,     1
*Surface, type=ELEMENT, name=s_Surf-19
_s_Surf-19_S2, S2
_s_Surf-19_S4, S4
_s_Surf-19_S3, S3
_s_Surf-19_S1, S1
*Elset, elset=_s_Surf-21_S4, internal, instance=imp-osso-1
    1,    8,   19,   20,   22,   23,   30,   31,   36,   37,   38,   47,   49,   50,   51,  146
  212,  320,  391,  392,  395,  563,  978, 1007, 1008, 1061
*Elset, elset=_s_Surf-21_S2, internal, instance=imp-osso-1
    7,   14,   57,   66,  144,  393,  394,  398,  584,  620,  977, 1002, 1003, 1004
*Elset, elset=_s_Surf-21_S3, internal, instance=imp-osso-1
   18,   20,   22,  218,  390,  397,  445,  968,  969,  970,  978,  985, 1006, 1018, 1020, 1021
 1023, 1028, 1035
*Elset, elset=_s_Surf-21_S1, internal, instance=imp-osso-1
   25,   41,  606,  660,  991, 1005, 1007, 1009, 1010, 1027, 1032
*Surface, type=ELEMENT, name=s_Surf-21
_s_Surf-21_S4, S4
_s_Surf-21_S2, S2
_s_Surf-21_S3, S3
_s_Surf-21_S1, S1
*Elset, elset=_s_Surf-23_S2, internal, instance=implante-2-Copy4-1
 306, 366, 379
*Elset, elset=_s_Surf-23_S4, internal, instance=implante-2-Copy4-1
 406,
*Surface, type=ELEMENT, name=s_Surf-23
_s_Surf-23_S2, S2
_s_Surf-23_S4, S4
*Elset, elset=_s_Surf-24_S4, internal, instance=imp-osso-1
 298, 442
*Elset, elset=_s_Surf-24_S2, internal, instance=imp-osso-1
 481,
*Surface, type=ELEMENT, name=s_Surf-24
_s_Surf-24_S4, S4
_s_Surf-24_S2, S2
*Elset, elset=_s_Surf-25_S2, internal, instance=implante-2-Copy4-1
 306, 366, 379
*Elset, elset=_s_Surf-25_S4, internal, instance=implante-2-Copy4-1
 406,
*Surface, type=ELEMENT, name=s_Surf-25
_s_Surf-25_S2, S2
_s_Surf-25_S4, S4
*Elset, elset=_s_Surf-26_S4, internal, instance=imp-osso-1
 298, 442
*Elset, elset=_s_Surf-26_S2, internal, instance=imp-osso-1
 481,
*Surface, type=ELEMENT, name=s_Surf-26
_s_Surf-26_S4, S4
_s_Surf-26_S2, S2
** Constraint: Constraint-1
*Tie, name=Constraint-1, adjust=yes, type=SURFACE TO SURFACE
s_Surf-19, m_Surf-19
** Constraint: Constraint-2
*Tie, name=Constraint-2, adjust=yes, type=SURFACE TO SURFACE
s_Surf-21, m_Surf-21
** Constraint: Constraint-3
*Coupling, constraint name=Constraint-3, ref node=m_Set-70, surface=s_Surf-23
*Distributing, weighting method=UNIFORM
** Constraint: Constraint-4
*Coupling, constraint name=Constraint-4, ref node=m_Set-71, surface=s_Surf-24
*Distributing, weighting method=UNIFORM
** Constraint: Constraint-5
*Coupling, constraint name=Constraint-5, ref node=m_Set-72, surface=s_Surf-25
*Distributing, weighting method=UNIFORM
** Constraint: Constraint-6
*Coupling, constraint name=Constraint-6, ref node=m_Set-73, surface=s_Surf-26
*Distributing, weighting method=UNIFORM
*End Assembly
** 
** MATERIALS
** 
*Material, name=Co-Cr
*Elastic
230000., 0.3
*Material, name=alumina
*Elastic
380000., 0.21
*Material, name=osso-cortical
*Elastic
17000., 0.3
*Material, name=osso-trabecular
*Elastic
1380., 0.3
*Material, name=stainless-steel-316
*Elastic
200000., 0.3
*Material, name=titanium
*Elastic
110000., 0.3
** 
** BOUNDARY CONDITIONS
** 
** Name: BC-1 Type: Symmetry/Antisymmetry/Encastre
*Boundary
Set-74, ENCASTRE
** ----------------------------------------------------------------
** 
** STEP: Step-1
** 
*Step, name=Step-1, nlgeom=NO
*Static
1., 1., 1e-05, 1.
** 
** LOADS
** 
** Name: Load-1   Type: Concentrated force
*Cload
Set-75, 1, 150.
Set-75, 2, -259.
** Name: Load-2   Type: Concentrated force
*Cload
Set-76, 1, -50.
Set-76, 2, 86.
** 
** OUTPUT REQUESTS
** 
*Restart, write, frequency=0
** 
** FIELD OUTPUT: F-Output-1
** 
*Output, field, variable=PRESELECT
** 
** HISTORY OUTPUT: H-Output-1
** 
*Output, history, variable=PRESELECT
*End Step
