*Heading
** Job name: CORT-alumina Model name: Model-1
** Generated by: Abaqus/CAE 2022
*Preprint, echo=NO, model=NO, history=NO, contact=NO
**
** PARTS
**
*Part, name=implante-2-Copy4
*End Part
**  
*Part, name=osso-cut
*End Part
**  
**
** ASSEMBLY
**
*Assembly, name=Assembly
**  
*Instance, name=osso-cut-1, part=osso-cut
*Node
      1,    14.514101,   39.0510254
      2,   18.0629616,   42.4970436
      3,   11.8524561,   36.4665146
      4,   14.6397963,   33.5959892
      5,   13.1702614,   32.1964111
      6,   11.5531521,   33.8943481
      7,   9.45713997,   31.8981152
      8,   7.36112785,   29.9018822
      9,    8.9782362,   28.2039433
     10,   12.1645365,   24.8583813
     11,   15.3508358,   21.5128174
     12,   18.5371361,   18.1672554
     13,    20.661335,   15.9368792
     14,   23.8476353,   12.5913162
     15,   27.0339355,   9.24575329
     16,   23.7110939,   6.08109379
     17,   21.4958668,   3.97132087
     18,   18.1730251,  0.806661725
     19,   14.8501854,  -2.35799742
     20,   11.6638851,  0.987565577
** ... 3655 like lines cut
*Element, type=CPS8R
   1,   91, 1055, 1056,  685, 1260, 1261, 1262, 1263
   2,   93,  694,  655,  581, 1264, 1265, 1266, 1267
   3,  822,  795,   98,  864, 1268, 1269, 1270, 1271
   4,  530,   87,  615,  673, 1272, 1273, 1274, 1275
   5,  515,  624,  441,  110, 1276, 1277, 1278, 1279
   6,  366,   77,  418,  120, 1280, 1281, 1282, 1283
   7,  461,  552,  554,  458, 1284, 1285, 1286, 1287
   8,  704, 1095,  123,  737, 1288, 1289, 1290, 1291
   9,  750,  280,  281,  124, 1292, 1293, 1294, 1295
  10,  280,  750,  392,   13, 1292, 1296, 1297, 1298
  11,   14,  497,  124,  281, 1299, 1300, 1294, 1301
  12,  282, 1060,  497,   14, 1302, 1303, 1299, 1304
  13,  497, 1060,  558,  819, 1303, 1305, 1306, 1307
  14,  452,  128,  360,   72, 1308, 1309, 1310, 1311
  15,  450,   15,  556, 1076, 1312, 1313, 1314, 1315
  16, 1076,  556,   73,  362, 1314, 1316, 1317, 1318
  17,  455,  125,  558,  459, 1319, 1320, 1321, 1322
  18,  584,  456,  457,  557, 1323, 1324, 1325, 1326
  19,  385,  384,    1,  265, 1327, 1328, 1329, 1330
  20,  588,  267,  268,   90, 1331, 1332, 1333, 1334
** ... 1138 like lines cut
*Nset, nset=set-osso, generate
    1,  3675,     1
*Elset, elset=set-osso, generate
    1,  1158,     1
** Section: osso-section
*Solid Section, elset=set-osso, material=osso-cortical
22.5,
*End Instance
**  
*Instance, name=implante-2-Copy4-1, part=implante-2-Copy4
   13.496435,     -5.70859,           0.
*Node
      1,  -1.64397871,    42.175106
      2,  -25.1849537,   19.3163319
      3,   -22.618803,   16.6735973
      4,  -20.7349701,   18.4677505
      5,  -22.3520794,   20.1656876
      6,  -18.3190575,   24.0067215
      7,  -16.7019482,   22.3087826
      8,   1.35374999,   3.35059237
      9,   13.5375004,   14.9543428
     10,  -4.51819849,   33.9125328
     11,  -6.13530731,   35.6104736
     12,   -1.9432826,   39.6029396
     13, -0.326174021,   37.9049988
     14,   1.14336121,   39.3045807
     15,   4.69218206,   48.3276482
     16,  -13.6162834,   52.2797546
     17,  -20.1445999,   50.2828827
     18,  -31.1362495,   13.5375004
     19,   -2.6674993,   41.1812439
     20,  -3.69102001,   40.1873856
** ... 2275 like lines cut
*Element, type=CPS8R
  1,  361,   40,    2,   41,  788,  789,  790,  791
  2,    5,   40,  361,   43,  792,  788,  793,  794
  3,   44,   45,   38,   39,  795,  796,  797,  798
  4,    6,   47,  151,  206,  799,  800,  801,  802
  5,   22,   91,   92,   21,  803,  804,  805,  806
  6,  154,  360,   12,   94,  807,  808,  809,  810
  7,  154,   94,   13,  152,  810,  811,  812,  813
  8,   95,   96,  154,  152,  814,  815,  813,  816
  9,  158,   25,   26,  199,  817,  818,  819,  820
 10,  156,   31,   32,  157,  821,  822,  823,  824
 11,  159,   30,   31,  156,  825,  826,  821,  827
 12,  151,  153,  198,  163,  828,  829,  830,  831
 13,   39,   40,    5,   44,  832,  792,  833,  798
 14,   45,   46,   37,   38,  834,  835,  836,  796
 15,   35,   36,    6,  206,  837,  838,  802,  839
 16,  362,  206,  151,  163,  840,  801,  831,  841
 17,  240,  167,  176,  216,  842,  843,  844,  845
 18,  153,  151,   47,    7,  828,  800,  846,  847
 19,   49,   50,  178,  176,  848,  849,  850,  851
 20,  242,  205,  241,  343,  852,  853,  854,  855
** ... 702 like lines cut
*Nset, nset=Set-1
    1,    2,   15,   16,   17,   18,   19,   20,   21,   22,   23,   24,   25,   26,   27,   28
   29,   30,   31,   32,   33,   34,   35,   36,   37,   38,   39,   40,   97,   98,   99,  100
  101,  102,  103,  104,  105,  106,  107,  108,  109,  110,  111,  112,  113,  114,  115,  116
  117,  118,  119,  120,  121,  122,  123,  124,  125,  126,  127,  128,  129,  130,  131,  132
  133,  134,  135,  136,  137,  138,  139,  140,  141,  142,  143,  144,  145,  146,  147,  148
  149,  150,  371,  372,  373,  374,  375,  376,  377,  378,  379,  380,  381,  382,  383,  384
  385,  386,  387,  388,  389,  390,  391,  392,  393,  394,  395,  396,  397,  398,  399,  400
  401,  402,  403,  404,  405,  406,  407,  408,  409,  410,  411,  412,  413,  414,  415,  416
  417,  418,  419,  420,  421,  422,  423,  424,  425,  426,  427,  428,  429,  430,  431,  432
  433,  434,  435,  436,  437,  438,  439,  440,  441,  442,  443,  444,  445,  446,  447,  448
  449,  450,  451,  452,  453,  454,  455,  456,  457,  458,  459,  460,  461,  462,  463,  464
  465,  466,  467,  468,  469,  470,  471,  472,  473,  474,  475,  476,  477,  478,  479,  480
  481,  482,  483,  484,  485,  486,  487,  488,  489,  490,  491,  492,  493,  494,  495,  496
  497,  498,  499,  500,  501,  502,  503,  504,  505,  506,  507,  508,  509,  510,  511,  512
  513,  514,  515,  516,  517,  518,  519,  520,  521,  522,  523,  524,  525,  526,  527,  528
  529,  530,  531,  532,  533,  534,  535,  536,  537,  538,  539,  540,  541,  542,  543,  544
  545,  546,  547,  548,  549,  550,  551,  552,  553,  554,  555,  556,  557,  558,  559,  560
  561,  562,  563,  564,  565,  566,  567,  568,  569,  570,  571,  572,  573,  574,  575,  576
  577,  578,  579,  580,  581,  582,  583,  584,  585,  586,  587,  588,  589,  590,  591,  592
  593,  594,  595,  596,  597,  598,  599,  600,  601,  602,  603,  604,  605,  606,  607,  608
** ... 71 like lines cut
*Elset, elset=Set-1, generate
 266,  722,    1
*Nset, nset=Set-2
    1,    2,    3,    4,    5,    6,    7,    8,    9,   10,   11,   12,   13,   14,   19,   20
   21,   22,   23,   24,   25,   26,   27,   28,   29,   30,   31,   32,   33,   34,   35,   36
   37,   38,   39,   40,   41,   42,   43,   44,   45,   46,   47,   48,   49,   50,   51,   52
   53,   54,   55,   56,   57,   58,   59,   60,   61,   62,   63,   64,   65,   66,   67,   68
   69,   70,   71,   72,   73,   74,   75,   76,   77,   78,   79,   80,   81,   82,   83,   84
   85,   86,   87,   88,   89,   90,   91,   92,   93,   94,   95,   96,  151,  152,  153,  154
  155,  156,  157,  158,  159,  160,  161,  162,  163,  164,  165,  166,  167,  168,  169,  170
  171,  172,  173,  174,  175,  176,  177,  178,  179,  180,  181,  182,  183,  184,  185,  186
  187,  188,  189,  190,  191,  192,  193,  194,  195,  196,  197,  198,  199,  200,  201,  202
  203,  204,  205,  206,  207,  208,  209,  210,  211,  212,  213,  214,  215,  216,  217,  218
  219,  220,  221,  222,  223,  224,  225,  226,  227,  228,  229,  230,  231,  232,  233,  234
  235,  236,  237,  238,  239,  240,  241,  242,  243,  244,  245,  246,  247,  248,  249,  250
  251,  252,  253,  254,  255,  256,  257,  258,  259,  260,  261,  262,  263,  264,  265,  266
  267,  268,  269,  270,  271,  272,  273,  274,  275,  276,  277,  278,  279,  280,  281,  282
  283,  284,  285,  286,  287,  288,  289,  290,  291,  292,  293,  294,  295,  296,  297,  298
  299,  300,  301,  302,  303,  304,  305,  306,  307,  308,  309,  310,  311,  312,  313,  314
  315,  316,  317,  318,  319,  320,  321,  322,  323,  324,  325,  326,  327,  328,  329,  330
  331,  332,  333,  334,  335,  336,  337,  338,  339,  340,  341,  342,  343,  344,  345,  346
  347,  348,  349,  350,  351,  352,  353,  354,  355,  356,  357,  358,  359,  360,  361,  362
  363,  364,  365,  366,  367,  368,  369,  370,  788,  789,  790,  791,  792,  793,  794,  795
** ... 36 like lines cut
*Elset, elset=Set-2, generate
   1,  265,    1
*Nset, nset=Set-3
    1,    2,   15,   16,   17,   18,   19,   20,   21,   22,   23,   24,   25,   26,   27,   28
   29,   30,   31,   32,   33,   34,   35,   36,   37,   38,   39,   40,   97,   98,   99,  100
  101,  102,  103,  104,  105,  106,  107,  108,  109,  110,  111,  112,  113,  114,  115,  116
  117,  118,  119,  120,  121,  122,  123,  124,  125,  126,  127,  128,  129,  130,  131,  132
  133,  134,  135,  136,  137,  138,  139,  140,  141,  142,  143,  144,  145,  146,  147,  148
  149,  150,  371,  372,  373,  374,  375,  376,  377,  378,  379,  380,  381,  382,  383,  384
  385,  386,  387,  388,  389,  390,  391,  392,  393,  394,  395,  396,  397,  398,  399,  400
  401,  402,  403,  404,  405,  406,  407,  408,  409,  410,  411,  412,  413,  414,  415,  416
  417,  418,  419,  420,  421,  422,  423,  424,  425,  426,  427,  428,  429,  430,  431,  432
  433,  434,  435,  436,  437,  438,  439,  440,  441,  442,  443,  444,  445,  446,  447,  448
  449,  450,  451,  452,  453,  454,  455,  456,  457,  458,  459,  460,  461,  462,  463,  464
  465,  466,  467,  468,  469,  470,  471,  472,  473,  474,  475,  476,  477,  478,  479,  480
  481,  482,  483,  484,  485,  486,  487,  488,  489,  490,  491,  492,  493,  494,  495,  496
  497,  498,  499,  500,  501,  502,  503,  504,  505,  506,  507,  508,  509,  510,  511,  512
  513,  514,  515,  516,  517,  518,  519,  520,  521,  522,  523,  524,  525,  526,  527,  528
  529,  530,  531,  532,  533,  534,  535,  536,  537,  538,  539,  540,  541,  542,  543,  544
  545,  546,  547,  548,  549,  550,  551,  552,  553,  554,  555,  556,  557,  558,  559,  560
  561,  562,  563,  564,  565,  566,  567,  568,  569,  570,  571,  572,  573,  574,  575,  576
  577,  578,  579,  580,  581,  582,  583,  584,  585,  586,  587,  588,  589,  590,  591,  592
  593,  594,  595,  596,  597,  598,  599,  600,  601,  602,  603,  604,  605,  606,  607,  608
** ... 71 like lines cut
*Elset, elset=Set-3, generate
 266,  722,    1
*Nset, nset=Set-4
    1,    2,   15,   16,   17,   18,   19,   20,   21,   22,   23,   24,   25,   26,   27,   28
   29,   30,   31,   32,   33,   34,   35,   36,   37,   38,   39,   40,   97,   98,   99,  100
  101,  102,  103,  104,  105,  106,  107,  108,  109,  110,  111,  112,  113,  114,  115,  116
  117,  118,  119,  120,  121,  122,  123,  124,  125,  126,  127,  128,  129,  130,  131,  132
  133,  134,  135,  136,  137,  138,  139,  140,  141,  142,  143,  144,  145,  146,  147,  148
  149,  150,  371,  372,  373,  374,  375,  376,  377,  378,  379,  380,  381,  382,  383,  384
  385,  386,  387,  388,  389,  390,  391,  392,  393,  394,  395,  396,  397,  398,  399,  400
  401,  402,  403,  404,  405,  406,  407,  408,  409,  410,  411,  412,  413,  414,  415,  416
  417,  418,  419,  420,  421,  422,  423,  424,  425,  426,  427,  428,  429,  430,  431,  432
  433,  434,  435,  436,  437,  438,  439,  440,  441,  442,  443,  444,  445,  446,  447,  448
  449,  450,  451,  452,  453,  454,  455,  456,  457,  458,  459,  460,  461,  462,  463,  464
  465,  466,  467,  468,  469,  470,  471,  472,  473,  474,  475,  476,  477,  478,  479,  480
  481,  482,  483,  484,  485,  486,  487,  488,  489,  490,  491,  492,  493,  494,  495,  496
  497,  498,  499,  500,  501,  502,  503,  504,  505,  506,  507,  508,  509,  510,  511,  512
  513,  514,  515,  516,  517,  518,  519,  520,  521,  522,  523,  524,  525,  526,  527,  528
  529,  530,  531,  532,  533,  534,  535,  536,  537,  538,  539,  540,  541,  542,  543,  544
  545,  546,  547,  548,  549,  550,  551,  552,  553,  554,  555,  556,  557,  558,  559,  560
  561,  562,  563,  564,  565,  566,  567,  568,  569,  570,  571,  572,  573,  574,  575,  576
  577,  578,  579,  580,  581,  582,  583,  584,  585,  586,  587,  588,  589,  590,  591,  592
  593,  594,  595,  596,  597,  598,  599,  600,  601,  602,  603,  604,  605,  606,  607,  608
** ... 71 like lines cut
*Elset, elset=Set-4, generate
 266,  722,    1
*Nset, nset=Set-5
    1,    2,    3,    4,    5,    6,    7,    8,    9,   10,   11,   12,   13,   14,   19,   20
   21,   22,   23,   24,   25,   26,   27,   28,   29,   30,   31,   32,   33,   34,   35,   36
   37,   38,   39,   40,   41,   42,   43,   44,   45,   46,   47,   48,   49,   50,   51,   52
   53,   54,   55,   56,   57,   58,   59,   60,   61,   62,   63,   64,   65,   66,   67,   68
   69,   70,   71,   72,   73,   74,   75,   76,   77,   78,   79,   80,   81,   82,   83,   84
   85,   86,   87,   88,   89,   90,   91,   92,   93,   94,   95,   96,  151,  152,  153,  154
  155,  156,  157,  158,  159,  160,  161,  162,  163,  164,  165,  166,  167,  168,  169,  170
  171,  172,  173,  174,  175,  176,  177,  178,  179,  180,  181,  182,  183,  184,  185,  186
  187,  188,  189,  190,  191,  192,  193,  194,  195,  196,  197,  198,  199,  200,  201,  202
  203,  204,  205,  206,  207,  208,  209,  210,  211,  212,  213,  214,  215,  216,  217,  218
  219,  220,  221,  222,  223,  224,  225,  226,  227,  228,  229,  230,  231,  232,  233,  234
  235,  236,  237,  238,  239,  240,  241,  242,  243,  244,  245,  246,  247,  248,  249,  250
  251,  252,  253,  254,  255,  256,  257,  258,  259,  260,  261,  262,  263,  264,  265,  266
  267,  268,  269,  270,  271,  272,  273,  274,  275,  276,  277,  278,  279,  280,  281,  282
  283,  284,  285,  286,  287,  288,  289,  290,  291,  292,  293,  294,  295,  296,  297,  298
  299,  300,  301,  302,  303,  304,  305,  306,  307,  308,  309,  310,  311,  312,  313,  314
  315,  316,  317,  318,  319,  320,  321,  322,  323,  324,  325,  326,  327,  328,  329,  330
  331,  332,  333,  334,  335,  336,  337,  338,  339,  340,  341,  342,  343,  344,  345,  346
  347,  348,  349,  350,  351,  352,  353,  354,  355,  356,  357,  358,  359,  360,  361,  362
  363,  364,  365,  366,  367,  368,  369,  370,  788,  789,  790,  791,  792,  793,  794,  795
** ... 36 like lines cut
*Elset, elset=Set-5, generate
   1,  265,    1
*Nset, nset=Set-6
    1,    2,    3,    4,    5,    6,    7,    8,    9,   10,   11,   12,   13,   14,   19,   20
   21,   22,   23,   24,   25,   26,   27,   28,   29,   30,   31,   32,   33,   34,   35,   36
   37,   38,   39,   40,   41,   42,   43,   44,   45,   46,   47,   48,   49,   50,   51,   52
   53,   54,   55,   56,   57,   58,   59,   60,   61,   62,   63,   64,   65,   66,   67,   68
   69,   70,   71,   72,   73,   74,   75,   76,   77,   78,   79,   80,   81,   82,   83,   84
   85,   86,   87,   88,   89,   90,   91,   92,   93,   94,   95,   96,  151,  152,  153,  154
  155,  156,  157,  158,  159,  160,  161,  162,  163,  164,  165,  166,  167,  168,  169,  170
  171,  172,  173,  174,  175,  176,  177,  178,  179,  180,  181,  182,  183,  184,  185,  186
  187,  188,  189,  190,  191,  192,  193,  194,  195,  196,  197,  198,  199,  200,  201,  202
  203,  204,  205,  206,  207,  208,  209,  210,  211,  212,  213,  214,  215,  216,  217,  218
  219,  220,  221,  222,  223,  224,  225,  226,  227,  228,  229,  230,  231,  232,  233,  234
  235,  236,  237,  238,  239,  240,  241,  242,  243,  244,  245,  246,  247,  248,  249,  250
  251,  252,  253,  254,  255,  256,  257,  258,  259,  260,  261,  262,  263,  264,  265,  266
  267,  268,  269,  270,  271,  272,  273,  274,  275,  276,  277,  278,  279,  280,  281,  282
  283,  284,  285,  286,  287,  288,  289,  290,  291,  292,  293,  294,  295,  296,  297,  298
  299,  300,  301,  302,  303,  304,  305,  306,  307,  308,  309,  310,  311,  312,  313,  314
  315,  316,  317,  318,  319,  320,  321,  322,  323,  324,  325,  326,  327,  328,  329,  330
  331,  332,  333,  334,  335,  336,  337,  338,  339,  340,  341,  342,  343,  344,  345,  346
  347,  348,  349,  350,  351,  352,  353,  354,  355,  356,  357,  358,  359,  360,  361,  362
  363,  364,  365,  366,  367,  368,  369,  370,  788,  789,  790,  791,  792,  793,  794,  795
** ... 36 like lines cut
*Elset, elset=Set-6, generate
   1,  265,    1
*Nset, nset=Set-7, generate
    1,  2295,     1
*Elset, elset=Set-7, generate
   1,  722,    1
*Nset, nset=Set-8
    1,    2,   15,   16,   17,   18,   19,   20,   21,   22,   23,   24,   25,   26,   27,   28
   29,   30,   31,   32,   33,   34,   35,   36,   37,   38,   39,   40,   97,   98,   99,  100
  101,  102,  103,  104,  105,  106,  107,  108,  109,  110,  111,  112,  113,  114,  115,  116
  117,  118,  119,  120,  121,  122,  123,  124,  125,  126,  127,  128,  129,  130,  131,  132
  133,  134,  135,  136,  137,  138,  139,  140,  141,  142,  143,  144,  145,  146,  147,  148
  149,  150,  371,  372,  373,  374,  375,  376,  377,  378,  379,  380,  381,  382,  383,  384
  385,  386,  387,  388,  389,  390,  391,  392,  393,  394,  395,  396,  397,  398,  399,  400
  401,  402,  403,  404,  405,  406,  407,  408,  409,  410,  411,  412,  413,  414,  415,  416
  417,  418,  419,  420,  421,  422,  423,  424,  425,  426,  427,  428,  429,  430,  431,  432
  433,  434,  435,  436,  437,  438,  439,  440,  441,  442,  443,  444,  445,  446,  447,  448
  449,  450,  451,  452,  453,  454,  455,  456,  457,  458,  459,  460,  461,  462,  463,  464
  465,  466,  467,  468,  469,  470,  471,  472,  473,  474,  475,  476,  477,  478,  479,  480
  481,  482,  483,  484,  485,  486,  487,  488,  489,  490,  491,  492,  493,  494,  495,  496
  497,  498,  499,  500,  501,  502,  503,  504,  505,  506,  507,  508,  509,  510,  511,  512
  513,  514,  515,  516,  517,  518,  519,  520,  521,  522,  523,  524,  525,  526,  527,  528
  529,  530,  531,  532,  533,  534,  535,  536,  537,  538,  539,  540,  541,  542,  543,  544
  545,  546,  547,  548,  549,  550,  551,  552,  553,  554,  555,  556,  557,  558,  559,  560
  561,  562,  563,  564,  565,  566,  567,  568,  569,  570,  571,  572,  573,  574,  575,  576
  577,  578,  579,  580,  581,  582,  583,  584,  585,  586,  587,  588,  589,  590,  591,  592
  593,  594,  595,  596,  597,  598,  599,  600,  601,  602,  603,  604,  605,  606,  607,  608
** ... 71 like lines cut
*Elset, elset=Set-8, generate
 266,  722,    1
*Nset, nset=Set-9
    1,    2,    3,    4,    5,    6,    7,    8,    9,   10,   11,   12,   13,   14,   19,   20
   21,   22,   23,   24,   25,   26,   27,   28,   29,   30,   31,   32,   33,   34,   35,   36
   37,   38,   39,   40,   41,   42,   43,   44,   45,   46,   47,   48,   49,   50,   51,   52
   53,   54,   55,   56,   57,   58,   59,   60,   61,   62,   63,   64,   65,   66,   67,   68
   69,   70,   71,   72,   73,   74,   75,   76,   77,   78,   79,   80,   81,   82,   83,   84
   85,   86,   87,   88,   89,   90,   91,   92,   93,   94,   95,   96,  151,  152,  153,  154
  155,  156,  157,  158,  159,  160,  161,  162,  163,  164,  165,  166,  167,  168,  169,  170
  171,  172,  173,  174,  175,  176,  177,  178,  179,  180,  181,  182,  183,  184,  185,  186
  187,  188,  189,  190,  191,  192,  193,  194,  195,  196,  197,  198,  199,  200,  201,  202
  203,  204,  205,  206,  207,  208,  209,  210,  211,  212,  213,  214,  215,  216,  217,  218
  219,  220,  221,  222,  223,  224,  225,  226,  227,  228,  229,  230,  231,  232,  233,  234
  235,  236,  237,  238,  239,  240,  241,  242,  243,  244,  245,  246,  247,  248,  249,  250
  251,  252,  253,  254,  255,  256,  257,  258,  259,  260,  261,  262,  263,  264,  265,  266
  267,  268,  269,  270,  271,  272,  273,  274,  275,  276,  277,  278,  279,  280,  281,  282
  283,  284,  285,  286,  287,  288,  289,  290,  291,  292,  293,  294,  295,  296,  297,  298
  299,  300,  301,  302,  303,  304,  305,  306,  307,  308,  309,  310,  311,  312,  313,  314
  315,  316,  317,  318,  319,  320,  321,  322,  323,  324,  325,  326,  327,  328,  329,  330
  331,  332,  333,  334,  335,  336,  337,  338,  339,  340,  341,  342,  343,  344,  345,  346
  347,  348,  349,  350,  351,  352,  353,  354,  355,  356,  357,  358,  359,  360,  361,  362
  363,  364,  365,  366,  367,  368,  369,  370,  788,  789,  790,  791,  792,  793,  794,  795
** ... 36 like lines cut
*Elset, elset=Set-9, generate
   1,  265,    1
*Nset, nset=Set-10
    1,    2,    3,    4,    5,    6,    7,    8,    9,   10,   11,   12,   13,   14,   19,   20
   21,   22,   23,   24,   25,   26,   27,   28,   29,   30,   31,   32,   33,   34,   35,   36
   37,   38,   39,   40,   41,   42,   43,   44,   45,   46,   47,   48,   49,   50,   51,   52
   53,   54,   55,   56,   57,   58,   59,   60,   61,   62,   63,   64,   65,   66,   67,   68
   69,   70,   71,   72,   73,   74,   75,   76,   77,   78,   79,   80,   81,   82,   83,   84
   85,   86,   87,   88,   89,   90,   91,   92,   93,   94,   95,   96,  151,  152,  153,  154
  155,  156,  157,  158,  159,  160,  161,  162,  163,  164,  165,  166,  167,  168,  169,  170
  171,  172,  173,  174,  175,  176,  177,  178,  179,  180,  181,  182,  183,  184,  185,  186
  187,  188,  189,  190,  191,  192,  193,  194,  195,  196,  197,  198,  199,  200,  201,  202
  203,  204,  205,  206,  207,  208,  209,  210,  211,  212,  213,  214,  215,  216,  217,  218
  219,  220,  221,  222,  223,  224,  225,  226,  227,  228,  229,  230,  231,  232,  233,  234
  235,  236,  237,  238,  239,  240,  241,  242,  243,  244,  245,  246,  247,  248,  249,  250
  251,  252,  253,  254,  255,  256,  257,  258,  259,  260,  261,  262,  263,  264,  265,  266
  267,  268,  269,  270,  271,  272,  273,  274,  275,  276,  277,  278,  279,  280,  281,  282
  283,  284,  285,  286,  287,  288,  289,  290,  291,  292,  293,  294,  295,  296,  297,  298
  299,  300,  301,  302,  303,  304,  305,  306,  307,  308,  309,  310,  311,  312,  313,  314
  315,  316,  317,  318,  319,  320,  321,  322,  323,  324,  325,  326,  327,  328,  329,  330
  331,  332,  333,  334,  335,  336,  337,  338,  339,  340,  341,  342,  343,  344,  345,  346
  347,  348,  349,  350,  351,  352,  353,  354,  355,  356,  357,  358,  359,  360,  361,  362
  363,  364,  365,  366,  367,  368,  369,  370,  788,  789,  790,  791,  792,  793,  794,  795
** ... 36 like lines cut
*Elset, elset=Set-10, generate
   1,  265,    1
*Nset, nset=Set-11
    1,    2,    3,    4,    5,    6,    7,    8,    9,   10,   11,   12,   13,   14,   19,   20
   21,   22,   23,   24,   25,   26,   27,   28,   29,   30,   31,   32,   33,   34,   35,   36
   37,   38,   39,   40,   41,   42,   43,   44,   45,   46,   47,   48,   49,   50,   51,   52
   53,   54,   55,   56,   57,   58,   59,   60,   61,   62,   63,   64,   65,   66,   67,   68
   69,   70,   71,   72,   73,   74,   75,   76,   77,   78,   79,   80,   81,   82,   83,   84
   85,   86,   87,   88,   89,   90,   91,   92,   93,   94,   95,   96,  151,  152,  153,  154
  155,  156,  157,  158,  159,  160,  161,  162,  163,  164,  165,  166,  167,  168,  169,  170
  171,  172,  173,  174,  175,  176,  177,  178,  179,  180,  181,  182,  183,  184,  185,  186
  187,  188,  189,  190,  191,  192,  193,  194,  195,  196,  197,  198,  199,  200,  201,  202
  203,  204,  205,  206,  207,  208,  209,  210,  211,  212,  213,  214,  215,  216,  217,  218
  219,  220,  221,  222,  223,  224,  225,  226,  227,  228,  229,  230,  231,  232,  233,  234
  235,  236,  237,  238,  239,  240,  241,  242,  243,  244,  245,  246,  247,  248,  249,  250
  251,  252,  253,  254,  255,  256,  257,  258,  259,  260,  261,  262,  263,  264,  265,  266
  267,  268,  269,  270,  271,  272,  273,  274,  275,  276,  277,  278,  279,  280,  281,  282
  283,  284,  285,  286,  287,  288,  289,  290,  291,  292,  293,  294,  295,  296,  297,  298
  299,  300,  301,  302,  303,  304,  305,  306,  307,  308,  309,  310,  311,  312,  313,  314
  315,  316,  317,  318,  319,  320,  321,  322,  323,  324,  325,  326,  327,  328,  329,  330
  331,  332,  333,  334,  335,  336,  337,  338,  339,  340,  341,  342,  343,  344,  345,  346
  347,  348,  349,  350,  351,  352,  353,  354,  355,  356,  357,  358,  359,  360,  361,  362
  363,  364,  365,  366,  367,  368,  369,  370,  788,  789,  790,  791,  792,  793,  794,  795
** ... 36 like lines cut
*Elset, elset=Set-11, generate
   1,  265,    1
*Nset, nset=Set-12
    1,    2,    3,    4,    5,    6,    7,    8,    9,   10,   11,   12,   13,   14,   19,   20
   21,   22,   23,   24,   25,   26,   27,   28,   29,   30,   31,   32,   33,   34,   35,   36
   37,   38,   39,   40,   41,   42,   43,   44,   45,   46,   47,   48,   49,   50,   51,   52
   53,   54,   55,   56,   57,   58,   59,   60,   61,   62,   63,   64,   65,   66,   67,   68
   69,   70,   71,   72,   73,   74,   75,   76,   77,   78,   79,   80,   81,   82,   83,   84
   85,   86,   87,   88,   89,   90,   91,   92,   93,   94,   95,   96,  151,  152,  153,  154
  155,  156,  157,  158,  159,  160,  161,  162,  163,  164,  165,  166,  167,  168,  169,  170
  171,  172,  173,  174,  175,  176,  177,  178,  179,  180,  181,  182,  183,  184,  185,  186
  187,  188,  189,  190,  191,  192,  193,  194,  195,  196,  197,  198,  199,  200,  201,  202
  203,  204,  205,  206,  207,  208,  209,  210,  211,  212,  213,  214,  215,  216,  217,  218
  219,  220,  221,  222,  223,  224,  225,  226,  227,  228,  229,  230,  231,  232,  233,  234
  235,  236,  237,  238,  239,  240,  241,  242,  243,  244,  245,  246,  247,  248,  249,  250
  251,  252,  253,  254,  255,  256,  257,  258,  259,  260,  261,  262,  263,  264,  265,  266
  267,  268,  269,  270,  271,  272,  273,  274,  275,  276,  277,  278,  279,  280,  281,  282
  283,  284,  285,  286,  287,  288,  289,  290,  291,  292,  293,  294,  295,  296,  297,  298
  299,  300,  301,  302,  303,  304,  305,  306,  307,  308,  309,  310,  311,  312,  313,  314
  315,  316,  317,  318,  319,  320,  321,  322,  323,  324,  325,  326,  327,  328,  329,  330
  331,  332,  333,  334,  335,  336,  337,  338,  339,  340,  341,  342,  343,  344,  345,  346
  347,  348,  349,  350,  351,  352,  353,  354,  355,  356,  357,  358,  359,  360,  361,  362
  363,  364,  365,  366,  367,  368,  369,  370,  788,  789,  790,  791,  792,  793,  794,  795
** ... 36 like lines cut
*Elset, elset=Set-12, generate
   1,  265,    1
*Nset, nset=Set-13, generate
    1,  2295,     1
*Elset, elset=Set-13, generate
   1,  722,    1
*Nset, nset=Set-14
    1,    2,    3,    4,    5,    6,    7,    8,    9,   10,   11,   12,   13,   14,   19,   20
   21,   22,   23,   24,   25,   26,   27,   28,   29,   30,   31,   32,   33,   34,   35,   36
   37,   38,   39,   40,   41,   42,   43,   44,   45,   46,   47,   48,   49,   50,   51,   52
   53,   54,   55,   56,   57,   58,   59,   60,   61,   62,   63,   64,   65,   66,   67,   68
   69,   70,   71,   72,   73,   74,   75,   76,   77,   78,   79,   80,   81,   82,   83,   84
   85,   86,   87,   88,   89,   90,   91,   92,   93,   94,   95,   96,  151,  152,  153,  154
  155,  156,  157,  158,  159,  160,  161,  162,  163,  164,  165,  166,  167,  168,  169,  170
  171,  172,  173,  174,  175,  176,  177,  178,  179,  180,  181,  182,  183,  184,  185,  186
  187,  188,  189,  190,  191,  192,  193,  194,  195,  196,  197,  198,  199,  200,  201,  202
  203,  204,  205,  206,  207,  208,  209,  210,  211,  212,  213,  214,  215,  216,  217,  218
  219,  220,  221,  222,  223,  224,  225,  226,  227,  228,  229,  230,  231,  232,  233,  234
  235,  236,  237,  238,  239,  240,  241,  242,  243,  244,  245,  246,  247,  248,  249,  250
  251,  252,  253,  254,  255,  256,  257,  258,  259,  260,  261,  262,  263,  264,  265,  266
  267,  268,  269,  270,  271,  272,  273,  274,  275,  276,  277,  278,  279,  280,  281,  282
  283,  284,  285,  286,  287,  288,  289,  290,  291,  292,  293,  294,  295,  296,  297,  298
  299,  300,  301,  302,  303,  304,  305,  306,  307,  308,  309,  310,  311,  312,  313,  314
  315,  316,  317,  318,  319,  320,  321,  322,  323,  324,  325,  326,  327,  328,  329,  330
  331,  332,  333,  334,  335,  336,  337,  338,  339,  340,  341,  342,  343,  344,  345,  346
  347,  348,  349,  350,  351,  352,  353,  354,  355,  356,  357,  358,  359,  360,  361,  362
  363,  364,  365,  366,  367,  368,  369,  370,  788,  789,  790,  791,  792,  793,  794,  795
** ... 36 like lines cut
*Elset, elset=Set-14, generate
   1,  265,    1
*Nset, nset=Set-15
    1,    2,   15,   16,   17,   18,   19,   20,   21,   22,   23,   24,   25,   26,   27,   28
   29,   30,   31,   32,   33,   34,   35,   36,   37,   38,   39,   40,   97,   98,   99,  100
  101,  102,  103,  104,  105,  106,  107,  108,  109,  110,  111,  112,  113,  114,  115,  116
  117,  118,  119,  120,  121,  122,  123,  124,  125,  126,  127,  128,  129,  130,  131,  132
  133,  134,  135,  136,  137,  138,  139,  140,  141,  142,  143,  144,  145,  146,  147,  148
  149,  150,  371,  372,  373,  374,  375,  376,  377,  378,  379,  380,  381,  382,  383,  384
  385,  386,  387,  388,  389,  390,  391,  392,  393,  394,  395,  396,  397,  398,  399,  400
  401,  402,  403,  404,  405,  406,  407,  408,  409,  410,  411,  412,  413,  414,  415,  416
  417,  418,  419,  420,  421,  422,  423,  424,  425,  426,  427,  428,  429,  430,  431,  432
  433,  434,  435,  436,  437,  438,  439,  440,  441,  442,  443,  444,  445,  446,  447,  448
  449,  450,  451,  452,  453,  454,  455,  456,  457,  458,  459,  460,  461,  462,  463,  464
  465,  466,  467,  468,  469,  470,  471,  472,  473,  474,  475,  476,  477,  478,  479,  480
  481,  482,  483,  484,  485,  486,  487,  488,  489,  490,  491,  492,  493,  494,  495,  496
  497,  498,  499,  500,  501,  502,  503,  504,  505,  506,  507,  508,  509,  510,  511,  512
  513,  514,  515,  516,  517,  518,  519,  520,  521,  522,  523,  524,  525,  526,  527,  528
  529,  530,  531,  532,  533,  534,  535,  536,  537,  538,  539,  540,  541,  542,  543,  544
  545,  546,  547,  548,  549,  550,  551,  552,  553,  554,  555,  556,  557,  558,  559,  560
  561,  562,  563,  564,  565,  566,  567,  568,  569,  570,  571,  572,  573,  574,  575,  576
  577,  578,  579,  580,  581,  582,  583,  584,  585,  586,  587,  588,  589,  590,  591,  592
  593,  594,  595,  596,  597,  598,  599,  600,  601,  602,  603,  604,  605,  606,  607,  608
** ... 71 like lines cut
*Elset, elset=Set-15, generate
 266,  722,    1
*Nset, nset=Set-16
    1,    2,   15,   16,   17,   18,   19,   20,   21,   22,   23,   24,   25,   26,   27,   28
   29,   30,   31,   32,   33,   34,   35,   36,   37,   38,   39,   40,   97,   98,   99,  100
  101,  102,  103,  104,  105,  106,  107,  108,  109,  110,  111,  112,  113,  114,  115,  116
  117,  118,  119,  120,  121,  122,  123,  124,  125,  126,  127,  128,  129,  130,  131,  132
  133,  134,  135,  136,  137,  138,  139,  140,  141,  142,  143,  144,  145,  146,  147,  148
  149,  150,  371,  372,  373,  374,  375,  376,  377,  378,  379,  380,  381,  382,  383,  384
  385,  386,  387,  388,  389,  390,  391,  392,  393,  394,  395,  396,  397,  398,  399,  400
  401,  402,  403,  404,  405,  406,  407,  408,  409,  410,  411,  412,  413,  414,  415,  416
  417,  418,  419,  420,  421,  422,  423,  424,  425,  426,  427,  428,  429,  430,  431,  432
  433,  434,  435,  436,  437,  438,  439,  440,  441,  442,  443,  444,  445,  446,  447,  448
  449,  450,  451,  452,  453,  454,  455,  456,  457,  458,  459,  460,  461,  462,  463,  464
  465,  466,  467,  468,  469,  470,  471,  472,  473,  474,  475,  476,  477,  478,  479,  480
  481,  482,  483,  484,  485,  486,  487,  488,  489,  490,  491,  492,  493,  494,  495,  496
  497,  498,  499,  500,  501,  502,  503,  504,  505,  506,  507,  508,  509,  510,  511,  512
  513,  514,  515,  516,  517,  518,  519,  520,  521,  522,  523,  524,  525,  526,  527,  528
  529,  530,  531,  532,  533,  534,  535,  536,  537,  538,  539,  540,  541,  542,  543,  544
  545,  546,  547,  548,  549,  550,  551,  552,  553,  554,  555,  556,  557,  558,  559,  560
  561,  562,  563,  564,  565,  566,  567,  568,  569,  570,  571,  572,  573,  574,  575,  576
  577,  578,  579,  580,  581,  582,  583,  584,  585,  586,  587,  588,  589,  590,  591,  592
  593,  594,  595,  596,  597,  598,  599,  600,  601,  602,  603,  604,  605,  606,  607,  608
** ... 71 like lines cut
*Elset, elset=Set-16, generate
 266,  722,    1
*Nset, nset=Set-17
    1,    2,    3,    4,    5,    6,    7,    8,    9,   10,   11,   12,   13,   14,   19,   20
   21,   22,   23,   24,   25,   26,   27,   28,   29,   30,   31,   32,   33,   34,   35,   36
   37,   38,   39,   40,   41,   42,   43,   44,   45,   46,   47,   48,   49,   50,   51,   52
   53,   54,   55,   56,   57,   58,   59,   60,   61,   62,   63,   64,   65,   66,   67,   68
   69,   70,   71,   72,   73,   74,   75,   76,   77,   78,   79,   80,   81,   82,   83,   84
   85,   86,   87,   88,   89,   90,   91,   92,   93,   94,   95,   96,  151,  152,  153,  154
  155,  156,  157,  158,  159,  160,  161,  162,  163,  164,  165,  166,  167,  168,  169,  170
  171,  172,  173,  174,  175,  176,  177,  178,  179,  180,  181,  182,  183,  184,  185,  186
  187,  188,  189,  190,  191,  192,  193,  194,  195,  196,  197,  198,  199,  200,  201,  202
  203,  204,  205,  206,  207,  208,  209,  210,  211,  212,  213,  214,  215,  216,  217,  218
  219,  220,  221,  222,  223,  224,  225,  226,  227,  228,  229,  230,  231,  232,  233,  234
  235,  236,  237,  238,  239,  240,  241,  242,  243,  244,  245,  246,  247,  248,  249,  250
  251,  252,  253,  254,  255,  256,  257,  258,  259,  260,  261,  262,  263,  264,  265,  266
  267,  268,  269,  270,  271,  272,  273,  274,  275,  276,  277,  278,  279,  280,  281,  282
  283,  284,  285,  286,  287,  288,  289,  290,  291,  292,  293,  294,  295,  296,  297,  298
  299,  300,  301,  302,  303,  304,  305,  306,  307,  308,  309,  310,  311,  312,  313,  314
  315,  316,  317,  318,  319,  320,  321,  322,  323,  324,  325,  326,  327,  328,  329,  330
  331,  332,  333,  334,  335,  336,  337,  338,  339,  340,  341,  342,  343,  344,  345,  346
  347,  348,  349,  350,  351,  352,  353,  354,  355,  356,  357,  358,  359,  360,  361,  362
  363,  364,  365,  366,  367,  368,  369,  370,  788,  789,  790,  791,  792,  793,  794,  795
** ... 36 like lines cut
*Elset, elset=Set-17, generate
   1,  265,    1
** Section: Tit-imp-sect
*Solid Section, elset=Set-17, material=titanium
22.5,
** Section: sect-alumina
*Solid Section, elset=Set-16, material=alumina
22.5,
*End Instance
**  
*Node
      1,  -3.45102215,   45.7918167,           0.
*Node
      2,   4.02018499,   21.3664093,           0.
*Node
      3,   30.7485065,   36.0705376,           0.
*Nset, nset=CORT-point-ev, instance=osso-cut-1
 2418,
*Nset, nset=CORT-point-ev, instance=implante-2-Copy4-1
 1345, 2247
*Nset, nset=Set-115
 1,
*Nset, nset=Set-116
 3,
*Nset, nset=Set-117, instance=osso-cut-1
   50,   51,   52,   53,   54,   55,   56,   57,   58,  332,  333,  334,  335,  336,  337,  338
  339,  340,  341, 1527, 1530, 1879, 1890, 1901, 1903, 1928, 1953, 2696, 2697, 2701, 2705, 2707
 2709, 2714, 2777, 2781, 2784
*Elset, elset=Set-117, instance=osso-cut-1
  74,  75, 170, 173, 176, 177, 184, 191, 437, 438, 439, 441, 442, 443, 445, 480
 485, 488
*Nset, nset=m_Set-111
 1,
*Nset, nset=m_Set-112
 3,
*Nset, nset=m_Set-113
 2,
*Nset, nset=m_Set-114
 2,
*Elset, elset=_m_Surf-53_S4, internal, instance=implante-2-Copy4-1
 301, 303, 311, 316, 332, 333
*Elset, elset=_m_Surf-53_S1, internal, instance=implante-2-Copy4-1
 304,
*Elset, elset=_m_Surf-53_S2, internal, instance=implante-2-Copy4-1
 280, 313, 315, 334, 366
*Surface, type=ELEMENT, name=m_Surf-53
_m_Surf-53_S4, S4
_m_Surf-53_S1, S1
_m_Surf-53_S2, S2
*Elset, elset=_m_Surf-55_S3, internal, instance=implante-2-Copy4-1
   1,   6,  13,  18,  29,  30,  34,  35,  39,  40,  43,  44,  47,  48,  51,  52
  53,  55,  56,  59,  61,  66,  78,  83,  84,  89,  93,  99, 101
*Elset, elset=_m_Surf-55_S4, internal, instance=implante-2-Copy4-1
   2,  23,  27,  28,  29,  44,  52,  67, 130
*Elset, elset=_m_Surf-55_S1, internal, instance=implante-2-Copy4-1
   3,   4,   8,  14,  19,  28,  32,  37,  38,  45,  46,  50,  58,  60,  62,  65
  68,  70,  73,  82,  85,  87, 100, 102, 103, 108
*Elset, elset=_m_Surf-55_S2, internal, instance=implante-2-Copy4-1
  5,  7, 25, 26, 66
*Surface, type=ELEMENT, name=m_Surf-55
_m_Surf-55_S3, S3
_m_Surf-55_S4, S4
_m_Surf-55_S2, S2
_m_Surf-55_S1, S1
*Elset, elset=_s_Surf-53_S3, internal, instance=osso-cut-1
  19,  95, 396
*Elset, elset=_s_Surf-53_S1, internal, instance=osso-cut-1
 397, 398, 399, 419, 420, 462, 469
*Elset, elset=_s_Surf-53_S4, internal, instance=osso-cut-1
 109, 563
*Surface, type=ELEMENT, name=s_Surf-53
_s_Surf-53_S3, S3
_s_Surf-53_S1, S1
_s_Surf-53_S4, S4
*Elset, elset=_s_Surf-55_S2, internal, instance=osso-cut-1
   9,  20,  37,  41,  42,  45, 140, 269, 270, 283, 399, 400, 404, 405, 407, 409
 410, 417, 418, 466, 472, 541, 542, 559, 613
*Elset, elset=_s_Surf-55_S3, internal, instance=osso-cut-1
  21, 109, 115, 116, 118, 120, 303, 401, 411, 412, 416, 603
*Elset, elset=_s_Surf-55_S4, internal, instance=osso-cut-1
  10,  11,  12,  26,  36,  38,  39,  43,  44, 111, 112, 230, 282, 309, 310, 406
 408,
*Elset, elset=_s_Surf-55_S1, internal, instance=osso-cut-1
  37, 108, 113, 114, 119, 322, 400, 413, 414, 415, 417, 418, 544, 551, 562
*Surface, type=ELEMENT, name=s_Surf-55
_s_Surf-55_S2, S2
_s_Surf-55_S3, S3
_s_Surf-55_S4, S4
_s_Surf-55_S1, S1
*Elset, elset=_s_Surf-57_S3, internal, instance=implante-2-Copy4-1
 292,
*Elset, elset=_s_Surf-57_S1, internal, instance=implante-2-Copy4-1
 295, 306, 314, 337
*Surface, type=ELEMENT, name=s_Surf-57
_s_Surf-57_S3, S3
_s_Surf-57_S1, S1
*Elset, elset=_s_Surf-58_S2, internal, instance=osso-cut-1
 226, 495, 565
*Surface, type=ELEMENT, name=s_Surf-58
_s_Surf-58_S2, S2
*Elset, elset=_s_Surf-59_S3, internal, instance=implante-2-Copy4-1
 292,
*Elset, elset=_s_Surf-59_S1, internal, instance=implante-2-Copy4-1
 295, 306, 314, 337
*Surface, type=ELEMENT, name=s_Surf-59
_s_Surf-59_S3, S3
_s_Surf-59_S1, S1
*Elset, elset=_s_Surf-60_S2, internal, instance=osso-cut-1
 226, 495, 565
*Surface, type=ELEMENT, name=s_Surf-60
_s_Surf-60_S2, S2
** Constraint: Constraint-1
*Tie, name=Constraint-1, adjust=yes, type=SURFACE TO SURFACE
s_Surf-53, m_Surf-53
** Constraint: Constraint-2
*Tie, name=Constraint-2, adjust=yes, type=SURFACE TO SURFACE
s_Surf-55, m_Surf-55
** Constraint: Constraint-3
*Coupling, constraint name=Constraint-3, ref node=m_Set-111, surface=s_Surf-57
*Distributing, weighting method=UNIFORM
** Constraint: Constraint-4
*Coupling, constraint name=Constraint-4, ref node=m_Set-112, surface=s_Surf-58
*Distributing, weighting method=UNIFORM
** Constraint: Constraint-5
*Coupling, constraint name=Constraint-5, ref node=m_Set-113, surface=s_Surf-59
*Distributing, weighting method=UNIFORM
** Constraint: Constraint-6
*Coupling, constraint name=Constraint-6, ref node=m_Set-114, surface=s_Surf-60
*Distributing, weighting method=UNIFORM
*End Assembly
** 
** MATERIALS
** 
*Material, name=Co-Cr
*Elastic
230000., 0.3
*Material, name=alumina
*Elastic
380000., 0.21
*Material, name=osso-cortical
*Elastic
17000., 0.3
*Material, name=osso-trabecular
*Elastic
1380., 0.3
*Material, name=stainless-steel-316
*Elastic
200000., 0.3
*Material, name=titanium
*Elastic
110000., 0.3
** ----------------------------------------------------------------
** 
** STEP: Step-1
** 
*Step, name=Step-1, nlgeom=NO
*Static
1., 1., 1e-05, 1.
** 
** BOUNDARY CONDITIONS
** 
** Name: BC-1 Type: Symmetry/Antisymmetry/Encastre
*Boundary
Set-117, ENCASTRE
** 
** LOADS
** 
** Name: Load-1   Type: Concentrated force
*Cload
Set-115, 1, 150.
Set-115, 2, -259.
** Name: Load-2   Type: Concentrated force
*Cload
Set-116, 1, -50.
Set-116, 2, 89.
** 
** OUTPUT REQUESTS
** 
*Restart, write, frequency=0
** 
** FIELD OUTPUT: F-Output-1
** 
*Output, field, variable=PRESELECT
** 
** HISTORY OUTPUT: H-Output-1
** 
*Output, history, variable=PRESELECT
*End Step
