*Heading
** Job name: DIV-075imp Model name: Model-1
** Generated by: Abaqus/CAE 2022
*Preprint, echo=NO, model=NO, history=NO, contact=NO
**
** PARTS
**
*Part, name=Part-3
*End Part
**  
*Part, name=cabeça-implante
*End Part
**  
*Part, name=haste-implante-Copy
*End Part
**  
**
** ASSEMBLY
**
*Assembly, name=Assembly
**  
*Instance, name=cabeça-implante-1, part=cabeça-implante
   18.930715,    31.830379,           0.
*Node
      1,         -35.,       -26.25
      2,  -25.9563351,  -17.5562782
      3,  -6.91689968,  0.746427834
      4,   2.12676692,   9.44015026
      5,  -10.7740393,    13.812232
      6,  -6.24056196,   13.1150723
      7,  -1.89647925,   11.6428633
      8,  -15.3597412,   13.7132483
      9,  -19.8882942,   12.8125582
     10,   -18.397192,   13.2008877
     11,  -22.7898102,   11.7782278
     12,  -37.0198708,  -22.1999226
     13,  -38.3174171,  -17.8640976
     14,  -38.8544159,  -13.3702517
     15,  -38.6150475,  -8.85077095
     16,  -37.6063614,  -4.43879128
     17,   -35.858078,  -0.26428473
     18,  -33.4216919,   3.54977369
     19,  -30.3689842,    6.8910265
     20,  -26.7898769,   9.66104507
** ... 1440 like lines cut
*Element, type=CPS8R
  1,  109,   21,   22,  159,  502,  503,  504,  505
  2,  159,  273,  126,  109,  506,  507,  508,  505
  3,  254,  253,  177,  175,  509,  510,  511,  512
  4,   95,   29,   30,  100,  513,  514,  515,  516
  5,  182,  125,  116,  170,  517,  518,  519,  520
  6,   32,   94,  102,   31,  521,  522,  523,  524
  7,  176,  166,  241,  240,  525,  526,  527,  528
  8,   94,   32,   33,   93,  521,  529,  530,  531
  9,   90,   37,   38,  103,  532,  533,  534,  535
 10,   34,  101,   93,   33,  536,  537,  530,  538
 11,  324,  326,  261,  263,  539,  540,  541,  542
 12,   48,  156,  154,   47,  543,  544,  545,  546
 13,   45,  105,  104,   44,  547,  548,  549,  550
 14,  141,  139,    5,   54,  551,  552,  553,  554
 15,  205,  203,  268,  265,  555,  556,  557,  558
 16,   43,   92,   99,   42,  559,  560,  561,  562
 17,  127,  172,  187,  131,  563,  564,  565,  566
 18,   23,   86,  159,   22,  567,  568,  504,  569
 19,   86,   23,   24,   87,  567,  570,  571,  572
 20,   25,   84,   87,   24,  573,  574,  571,  575
** ... 439 like lines cut
*Nset, nset=Set-1, generate
    1,  1460,     1
*Elset, elset=Set-1, generate
   1,  459,    1
** Section: CoCr-imp-section
*Solid Section, elset=Set-1, material=Co-Cr
22.5,
*End Instance
**  
*Instance, name=haste-implante-Copy-1, part=haste-implante-Copy
   16.515692,     2.367778,           0.
*Node
      1,  -23.5413113,   11.9063234
      2,  -4.50187683,   30.2090282
      3,  -20.9253273,   9.18504047
      4,  -19.5636997,   10.4924212
      5,  -20.8023396,   11.7824545
      6,  -17.1761398,   15.2641888
      7,     -15.9375,   13.9741554
      8,      -0.9375,  -1.64823115
      9,   8.59031391,          7.5
     10,  -6.40968609,   23.1223869
     11,  -7.64832544,   24.4124203
     12,  -4.39093971,   27.5400333
     13,  -3.15230083,        26.25
     14,       -1.875,   27.4764137
     15,  -22.5392361,   12.8696232
     16,  -21.5371609,   13.8329239
     17,  -20.5350857,   14.7962246
     18,  -19.5330086,   15.7595243
     19,  -18.5309334,   16.7228241
     20,  -17.5288582,   17.6861248
** ... 619 like lines cut
*Element, type=CPS8R
  1,   5, 211,  33,  34, 227, 228, 229, 230
  2,   4,   5,  34,   3, 231, 230, 232, 233
  3, 211, 212,  16,  15, 234, 235, 236, 237
  4,   7,  86, 110,   6, 238, 239, 240, 241
  5,  29,  71, 210,  30, 242, 243, 244, 245
  6, 218,  32,  31, 217, 246, 247, 248, 249
  7,  74,  12,  13,  14, 250, 251, 252, 253
  8,  77, 114, 113,  75, 254, 255, 256, 257
  9,  87,  10,  11,  79, 258, 259, 260, 261
 10, 101, 140, 137, 108, 262, 263, 264, 265
 11,  23,  22,  76,  77, 266, 267, 268, 269
 12,  15,   1,  33, 211, 270, 271, 228, 237
 13, 212, 211,   5,  35, 234, 227, 272, 273
 14,   6, 221, 220,  36, 274, 275, 276, 277
 15,  19,  18, 214, 215, 278, 279, 280, 281
 16,  19, 215, 216,  20, 281, 282, 283, 284
 17, 225,   6, 110, 223, 285, 240, 286, 287
 18, 141, 152, 172, 143, 288, 289, 290, 291
 19,  86,   7,  37,  89, 238, 292, 293, 294
 20,  75, 112,  25,  24, 295, 296, 297, 298
** ... 168 like lines cut
*Nset, nset=Set-1, generate
   1,  639,    1
*Elset, elset=Set-1, generate
   1,  188,    1
** Section: Tit-imp-sect
*Solid Section, elset=Set-1, material=titanium
22.5,
*End Instance
**  
*Instance, name=Part-3-1, part=Part-3
*Node
      1,   10.1060057,   25.4901657
      2,   24.6942596,    10.296608
      3,    18.150135,   38.4756813
      4,   12.0138149,   32.5768051
      5,   14.6406918,   29.8441925
      6,   13.3633909,   28.6177788
      7,    12.124752,   29.9078121
      8,   8.86736679,   26.7801991
      9,   23.9624557,   8.76978683
     10,    19.289938,   4.28341818
     11,   21.4632149,   4.68479967
     12,    12.967905,   3.43814087
     13,  0.578191996,   16.3419342
     14, -0.660447121,   17.6319675
     15,  -4.28664732,   14.1502323
     16,  -3.04800844,    12.860199
     17,  -4.40963602,   11.5528183
     18,  -7.02561951,   14.2741013
     19,   -12.536911,    8.9760685
     20,  -9.86786747,   4.68479967
** ... 3684 like lines cut
*Element, type=CPS8R
  1,  286,  320,  323,  290, 1268, 1269, 1270, 1271
  2,  311,  307,   32,   33, 1272, 1273, 1274, 1275
  3,  304,  311,   33,   34, 1276, 1275, 1277, 1278
  4,  339,  314,   30,   31, 1279, 1280, 1281, 1282
  5,  307,  339,   31,   32, 1283, 1282, 1284, 1273
  6,   34,   35,  313,  304, 1285, 1286, 1287, 1278
  7,   57,  286,  290,   56, 1288, 1271, 1289, 1290
  8,    5,  316,  322,  393, 1291, 1292, 1293, 1294
  9,   61,  288,  287,   60, 1295, 1296, 1297, 1298
 10,  283,  282,   64,   65, 1299, 1300, 1301, 1302
 11,    6,    7,   70,  315, 1303, 1304, 1305, 1306
 12,  392,   71,    8,    1, 1307, 1308, 1309, 1310
 13,  300,   53,   54,  296, 1311, 1312, 1313, 1314
 14,  298,  333,  331,  297, 1315, 1316, 1317, 1318
 15,  331,  352,  351,  330, 1319, 1320, 1321, 1322
 16,   49,  298,  297,   48, 1323, 1318, 1324, 1325
 17,  295,  330,  326,  292, 1326, 1327, 1328, 1329
 18,  292,  326,  325,  293, 1328, 1330, 1331, 1332
 19,  343,  294,  293,  325, 1333, 1334, 1331, 1335
 20,  337,  343,  325,  394, 1336, 1335, 1337, 1338
** ... 1151 like lines cut
*Nset, nset=Set-1
    1,    2,    3,    4,    5,    6,    7,    8,    9,   10,   11,   12,   13,   14,   15,   16
   17,   18,   19,   20,   29,   30,   31,   32,   33,   34,   35,   36,   37,   38,   39,   40
   41,   42,   43,   44,   45,   46,   47,   48,   49,   50,   51,   52,   53,   54,   55,   56
   57,   58,   59,   60,   61,   62,   63,   64,   65,   66,   67,   68,   69,   70,   71,   72
   73,   74,   75,   76,   77,   78,   79,   80,   81,   82,   83,   84,   85,   86,   87,   88
   89,   90,   91,   92,   93,   94,   95,   96,   97,   98,   99,  100,  101,  102,  103,  104
  105,  106,  107,  108,  109,  110,  111,  112,  113,  233,  234,  235,  236,  237,  238,  239
  240,  241,  242,  243,  244,  245,  246,  247,  248,  249,  250,  251,  252,  253,  254,  255
  256,  257,  258,  259,  260,  261,  262,  263,  264,  265,  266,  267,  268,  269,  270,  271
  272,  273,  274,  275,  276,  277,  278,  279,  280,  281,  282,  283,  284,  285,  286,  287
  288,  289,  290,  291,  292,  293,  294,  295,  296,  297,  298,  299,  300,  301,  302,  303
  304,  305,  306,  307,  308,  309,  310,  311,  312,  313,  314,  315,  316,  317,  318,  319
  320,  321,  322,  323,  324,  325,  326,  327,  328,  329,  330,  331,  332,  333,  334,  335
  336,  337,  338,  339,  340,  341,  342,  343,  344,  345,  346,  347,  348,  349,  350,  351
  352,  353,  354,  355,  356,  357,  358,  359,  360,  361,  362,  363,  364,  365,  366,  367
  368,  369,  370,  371,  372,  373,  374,  375,  376,  377,  378,  379,  380,  381,  382,  383
  384,  385,  386,  387,  388,  389,  390,  391,  392,  393,  394,  395,  396,  397,  398,  399
  400,  401,  402,  403,  404,  405,  406,  407,  408,  409,  410,  411,  412,  413,  414,  415
  416,  417,  418,  419,  420,  421,  422,  423,  424,  425,  426,  427,  428,  429,  430,  431
  432,  433,  434,  435,  436,  437,  438,  439,  440,  441,  442,  443,  444,  445,  446,  447
** ... 67 like lines cut
*Elset, elset=Set-1
    1,    2,    3,    4,    5,    6,    7,    8,    9,   10,   11,   12,   13,   14,   15,   16
   17,   18,   19,   20,   21,   22,   23,   24,   25,   26,   27,   28,   29,   30,   31,   32
   33,   34,   35,   36,   37,   38,   39,   40,   41,   42,   43,   44,   45,   46,   47,   48
   49,   50,   51,   52,   53,   54,   55,   56,   57,   58,   59,   60,   61,   62,   63,   64
   65,   66,   67,   68,   69,   70,   71,   72,   73,   74,   75,   76,   77,   78,   79,   80
   81,   82,   83,   84,   85,   86,   87,   88,   89,   90,   91,   92,   93,   94,   95,   96
   97,   98,   99,  100,  101,  102,  103,  104,  105,  106,  107,  108,  109,  110,  111,  112
  113,  114,  115,  116,  117,  118,  119,  120,  121,  122,  123,  124,  125,  126,  127,  128
  129,  130,  131,  132,  133,  134,  135,  136,  137,  138,  139,  140,  141,  142,  143,  144
  145,  146,  147,  148,  149,  150,  151,  152,  153,  154,  155,  156,  157,  158,  159,  160
  161,  162,  163,  164,  165,  166,  167,  168,  169,  170,  171,  172,  173,  174,  175,  176
  177,  178,  179,  180,  181,  182,  183,  184,  185,  186,  187,  188,  189,  190,  191,  192
  193,  194,  195,  196,  197,  198,  199,  200,  201,  202,  203,  204,  205,  206,  207,  208
  209,  210,  211,  212,  213,  214,  215,  216,  217,  218,  219,  220,  221,  222,  223,  224
  225,  226,  227,  228,  229,  230,  231,  232,  233,  234,  235,  236,  237,  238,  239,  240
  241,  242,  243,  244,  245,  246,  247,  248,  249,  250,  251,  252,  253,  254,  255,  256
  257,  258, 1019, 1020, 1021, 1022, 1023, 1024, 1025, 1026, 1027, 1028, 1029, 1030, 1031, 1032
 1033, 1034, 1035, 1036, 1037, 1038, 1039, 1040, 1041, 1042, 1043, 1044, 1045, 1046, 1047, 1048
 1049, 1050, 1051, 1052, 1053, 1054, 1055, 1056, 1057, 1058, 1059, 1060, 1061, 1062, 1063, 1064
 1065, 1066, 1067, 1068, 1069, 1070, 1071, 1072, 1073, 1074, 1075, 1076, 1077, 1078, 1079, 1080
** ... 6 like lines cut
*Nset, nset=Set-2
    2,    3,    9,   10,   11,   12,   19,   20,   21,   22,   23,   24,   25,   26,   27,   28
   29,   43,   44,   45,   46,   47,   48,   49,   50,   51,   52,   53,   54,   55,   56,   57
   58,   59,   60,   61,   62,   76,   77,   78,   98,   99,  100,  101,  102,  103,  104,  105
  106,  107,  108,  109,  110,  111,  112,  113,  114,  115,  116,  117,  118,  119,  120,  121
  122,  123,  124,  125,  126,  127,  128,  129,  130,  131,  132,  133,  134,  135,  136,  137
  138,  139,  140,  141,  142,  143,  144,  145,  146,  147,  148,  149,  150,  151,  152,  153
  154,  155,  156,  157,  158,  159,  160,  161,  162,  163,  164,  165,  166,  167,  168,  169
  170,  171,  172,  173,  174,  175,  176,  177,  178,  179,  180,  181,  182,  183,  184,  185
  186,  187,  188,  189,  190,  191,  192,  193,  194,  195,  196,  197,  198,  199,  200,  201
  202,  203,  204,  205,  206,  207,  208,  209,  210,  211,  212,  213,  214,  215,  216,  217
  218,  219,  220,  221,  222,  223,  224,  225,  226,  227,  228,  229,  230,  231,  232,  233
  234,  235,  236,  237,  238,  239,  240,  241,  242,  243,  244,  245,  246,  247,  248,  249
  250,  251,  252,  253,  254,  255,  256,  257,  258,  259,  260,  261,  262,  263,  264,  265
  266,  267,  268,  269,  270,  271,  272,  273,  274,  275,  276,  277,  278,  279,  489,  490
  491,  492,  493,  494,  495,  496,  497,  498,  499,  500,  501,  502,  503,  504,  505,  506
  507,  508,  509,  510,  511,  512,  513,  514,  515,  516,  517,  518,  519,  520,  521,  522
  523,  524,  525,  526,  527,  528,  529,  530,  531,  532,  533,  534,  535,  536,  537,  538
  539,  540,  541,  542,  543,  544,  545,  546,  547,  548,  549,  550,  551,  552,  553,  554
  555,  556,  557,  558,  559,  560,  561,  562,  563,  564,  565,  566,  567,  568,  569,  570
  571,  572,  573,  574,  575,  576,  577,  578,  579,  580,  581,  582,  583,  584,  585,  586
** ... 137 like lines cut
*Elset, elset=Set-2, generate
  259,  1018,     1
** Section: osso-trabecular-sect
*Solid Section, elset=Set-1, material=osso-trabecular
22.5,
** Section: osso-section
*Solid Section, elset=Set-2, material=osso-cortical
22.5,
*End Instance
**  
*Node
      1,   6.43071508,   19.3303795,           0.
*Node
      2,    30.204401,   36.5275764,           0.
*Node
      3, -0.214865714,   44.8479958,           0.
*Nset, nset=DIV075-point, instance=Part-3-1
 1206, 2074
*Nset, nset=DIV075-point, instance=haste-implante-Copy-1
 593,
*Nset, nset=DIV075-point, instance=cabeça-implante-1
 1439,
*Nset, nset=Set-135
 3,
*Nset, nset=Set-136
 2,
*Nset, nset=Set-137, instance=Part-3-1
   23,   24,  153,  154,  155,  156,  157,  158,  159,  160,  161,  162,  163,  164,  165,  166
  167,  168,  169, 1928, 2026, 2028, 2065, 2116, 2176, 2211, 2833, 2835, 2837, 2846, 2849, 2854
 2998, 2999, 3003, 3006, 3007
*Elset, elset=Set-137, instance=Part-3-1
 284, 314, 315, 324, 338, 355, 365, 573, 574, 575, 578, 579, 581, 655, 656, 661
 662, 663
*Nset, nset=m_Set-131
 3,
*Nset, nset=m_Set-132
 2,
*Nset, nset=m_Set-133
 1,
*Nset, nset=m_Set-134
 1,
*Elset, elset=_m_Surf-71_S2, internal, instance=cabeça-implante-1
   1,  19,  22,  25,  56,  77,  94,  95, 127
*Elset, elset=_m_Surf-71_S4, internal, instance=cabeça-implante-1
  12,  18,  20,  23,  46, 124, 126
*Elset, elset=_m_Surf-71_S1, internal, instance=cabeça-implante-1
 48,
*Surface, type=ELEMENT, name=m_Surf-71
_m_Surf-71_S2, S2
_m_Surf-71_S4, S4
_m_Surf-71_S1, S1
*Elset, elset=_m_Surf-73_S3, internal, instance=haste-implante-Copy-1
   1,   2,   7,  13,  22,  23,  40,  48,  49,  50,  71,  80,  90, 184
*Elset, elset=_m_Surf-73_S2, internal, instance=haste-implante-Copy-1
   7,   9,  12,  19,  35,  37,  38,  42,  45,  46,  55,  64,  65,  69,  70,  72
  73,  78, 183, 188
*Elset, elset=_m_Surf-73_S4, internal, instance=haste-implante-Copy-1
  2,  4,  7, 14, 27, 29, 36, 39, 43, 44, 47, 63
*Elset, elset=_m_Surf-73_S1, internal, instance=haste-implante-Copy-1
  2, 30, 31, 32, 37, 41, 44, 52, 85
*Surface, type=ELEMENT, name=m_Surf-73
_m_Surf-73_S3, S3
_m_Surf-73_S2, S2
_m_Surf-73_S4, S4
_m_Surf-73_S1, S1
*Elset, elset=_m_Surf-75_S2, internal, instance=cabeça-implante-1
  4,  8,  9, 29, 31, 33, 40, 74, 81, 82, 84, 88
*Elset, elset=_m_Surf-75_S4, internal, instance=cabeça-implante-1
  6, 10, 13, 16, 27, 41
*Surface, type=ELEMENT, name=m_Surf-75
_m_Surf-75_S2, S2
_m_Surf-75_S4, S4
*Elset, elset=_s_Surf-71_S3, internal, instance=Part-3-1
  10, 180, 262
*Elset, elset=_s_Surf-71_S1, internal, instance=Part-3-1
  33,  34,  38,  46, 181, 196, 601, 602, 603
*Elset, elset=_s_Surf-71_S4, internal, instance=Part-3-1
  37, 163
*Elset, elset=_s_Surf-71_S2, internal, instance=Part-3-1
 177, 261, 561
*Surface, type=ELEMENT, name=s_Surf-71
_s_Surf-71_S3, S3
_s_Surf-71_S1, S1
_s_Surf-71_S4, S4
_s_Surf-71_S2, S2
*Elset, elset=_s_Surf-73_S3, internal, instance=Part-3-1
   2,   3,   4,   5,  12,  51,  53,  60, 172, 395, 450, 555
*Elset, elset=_s_Surf-73_S1, internal, instance=Part-3-1
   6,  11,  23,  50,  64,  66,  68,  74, 152, 161, 162, 164, 176, 177, 209, 397
 463, 610
*Elset, elset=_s_Surf-73_S2, internal, instance=Part-3-1
  11,  12,  38,  39,  40,  76, 151, 153, 154, 155, 167, 168, 171, 173, 176, 189
 193, 199, 201, 619
*Elset, elset=_s_Surf-73_S4, internal, instance=Part-3-1
  41, 157, 159, 164, 174, 192, 451
*Surface, type=ELEMENT, name=s_Surf-73
_s_Surf-73_S3, S3
_s_Surf-73_S1, S1
_s_Surf-73_S2, S2
_s_Surf-73_S4, S4
*Elset, elset=_s_Surf-75_S3, internal, instance=haste-implante-Copy-1
   3,  20,  24,  62,  98, 185
*Elset, elset=_s_Surf-75_S4, internal, instance=haste-implante-Copy-1
  5, 16, 23, 57
*Elset, elset=_s_Surf-75_S2, internal, instance=haste-implante-Copy-1
 6,
*Elset, elset=_s_Surf-75_S1, internal, instance=haste-implante-Copy-1
 11, 12, 15, 21, 22, 54, 56, 61
*Surface, type=ELEMENT, name=s_Surf-75
_s_Surf-75_S3, S3
_s_Surf-75_S4, S4
_s_Surf-75_S2, S2
_s_Surf-75_S1, S1
*Elset, elset=_s_Surf-77_S3, internal, instance=cabeça-implante-1
  37, 136
*Elset, elset=_s_Surf-77_S1, internal, instance=cabeça-implante-1
 130, 134, 140
*Surface, type=ELEMENT, name=s_Surf-77
_s_Surf-77_S3, S3
_s_Surf-77_S1, S1
*Elset, elset=_s_Surf-78_S1, internal, instance=Part-3-1
 424, 598
*Elset, elset=_s_Surf-78_S3, internal, instance=Part-3-1
 443,
*Surface, type=ELEMENT, name=s_Surf-78
_s_Surf-78_S1, S1
_s_Surf-78_S3, S3
*Elset, elset=_s_Surf-79_S3, internal, instance=cabeça-implante-1
  37, 136
*Elset, elset=_s_Surf-79_S1, internal, instance=cabeça-implante-1
 130, 134, 140
*Surface, type=ELEMENT, name=s_Surf-79
_s_Surf-79_S3, S3
_s_Surf-79_S1, S1
*Elset, elset=_s_Surf-80_S1, internal, instance=Part-3-1
 424, 598
*Elset, elset=_s_Surf-80_S3, internal, instance=Part-3-1
 443,
*Surface, type=ELEMENT, name=s_Surf-80
_s_Surf-80_S1, S1
_s_Surf-80_S3, S3
** Constraint: Constraint-1
*Tie, name=Constraint-1, adjust=yes, type=SURFACE TO SURFACE
s_Surf-71, m_Surf-71
** Constraint: Constraint-2
*Tie, name=Constraint-2, adjust=yes, type=SURFACE TO SURFACE
s_Surf-73, m_Surf-73
** Constraint: Constraint-3
*Tie, name=Constraint-3, adjust=yes, type=SURFACE TO SURFACE
s_Surf-75, m_Surf-75
** Constraint: Constraint-4
*Coupling, constraint name=Constraint-4, ref node=m_Set-131, surface=s_Surf-77
*Distributing, weighting method=UNIFORM
** Constraint: Constraint-5
*Coupling, constraint name=Constraint-5, ref node=m_Set-132, surface=s_Surf-78
*Distributing, weighting method=UNIFORM
** Constraint: Constraint-6
*Coupling, constraint name=Constraint-6, ref node=m_Set-133, surface=s_Surf-79
*Distributing, weighting method=UNIFORM
** Constraint: Constraint-7
*Coupling, constraint name=Constraint-7, ref node=m_Set-134, surface=s_Surf-80
*Distributing, weighting method=UNIFORM
*End Assembly
** 
** MATERIALS
** 
*Material, name=Co-Cr
*Elastic
230000., 0.3
*Material, name=alumina
*Elastic
380000., 0.21
*Material, name=osso-cortical
*Elastic
17000., 0.3
*Material, name=osso-trabecular
*Elastic
1380., 0.3
*Material, name=stainless-steel-316
*Elastic
200000., 0.3
*Material, name=titanium
*Elastic
110000., 0.3
** ----------------------------------------------------------------
** 
** STEP: Step-1
** 
*Step, name=Step-1, nlgeom=NO
*Static
1., 1., 1e-05, 1.
** 
** BOUNDARY CONDITIONS
** 
** Name: BC-1 Type: Symmetry/Antisymmetry/Encastre
*Boundary
Set-137, ENCASTRE
** 
** LOADS
** 
** Name: Load-1   Type: Concentrated force
*Cload
Set-135, 1, 150.
Set-135, 2, -259.
** Name: Load-2   Type: Concentrated force
*Cload
Set-136, 1, -50.
Set-136, 2, 89.
** 
** OUTPUT REQUESTS
** 
*Restart, write, frequency=0
** 
** FIELD OUTPUT: F-Output-1
** 
*Output, field, variable=PRESELECT
** 
** HISTORY OUTPUT: H-Output-1
** 
*Output, history, variable=PRESELECT
*End Step
