*Heading
** Job name: DIV-05imp Model name: Model-1
** Generated by: Abaqus/CAE 2022
*Preprint, echo=NO, model=NO, history=NO, contact=NO
**
** PARTS
**
*Part, name=Part-2
*End Part
**  
*Part, name=cabeça-implante
*End Part
**  
*Part, name=haste-implante-Copy05
*End Part
**  
**
** ASSEMBLY
**
*Assembly, name=Assembly
**  
*Instance, name=cabeça-implante-1, part=cabeça-implante
   18.705571,    32.234784,           0.
*Node
      1,         -35.,       -26.25
      2,  -34.8638763,  -26.1191444
      3,  -22.7830944,   -14.505827
      4,  -10.0901384,   -2.3040235
      5,   2.12676692,   9.44015026
      6,  -10.7397852,   13.8099632
      7,  -6.21833181,   13.1096296
      8,  -1.88600302,   11.6382589
      9,  -15.3142338,    13.718173
     10,    -19.89188,    12.811511
     11,  -18.3847485,   13.2037401
     12,  -22.8236275,   11.7638664
     13,  -37.0185165,  -22.2033386
     14,  -38.3159218,  -17.8712902
     15,  -38.8540497,  -13.3812685
     16,  -38.6170769,  -8.86532688
     17,  -37.6119728,  -4.45628452
     18,  -35.8682976, -0.283816665
     19,   -33.437336,   3.52936006
     20,  -30.3905869,   6.87109613
** ... 1410 like lines cut
*Element, type=CPS8R
  1,   63,    1,    2,  472,  492,  493,  494,  495
  2,   83,   22,   23,   85,  496,  497,  498,  499
  3,  141,   66,   65,  140,  500,  501,  502,  503
  4,  101,   83,   85,  158,  504,  499,  505,  506
  5,  155,   80,   79,  154,  507,  508,  509,  510
  6,  120,   10,   61,  138,  511,  512,  513,  514
  7,  157,  185,  209,  119,  515,  516,  517,  518
  8,  132,   54,   53,  131,  519,  520,  521,  522
  9,  187,   92,  139,  220,  523,  524,  525,  526
 10,  440,  471,  421,  422,  527,  528,  529,  530
 11,   62,  139,   92,    9,  531,  524,  532,  533
 12,   44,   90,   91,   43,  534,  535,  536,  537
 13,  113,   36,   37,  115,  538,  539,  540,  541
 14,   34,  111,   95,   33,  542,  543,  544,  545
 15,   17,   99,  148,   73,  546,  547,  548,  549
 16,   97,   32,   33,   95,  550,  551,  544,  552
 17,   16,  108,  146,   71,  553,  554,  555,  556
 18,  107,   29,   30,  109,  557,  558,  559,  560
 19,   63,  472,  162,   64,  495,  561,  562,  563
 20,  103,   25,   26,  104,  564,  565,  566,  567
** ... 429 like lines cut
*Nset, nset=Set-1, generate
    1,  1430,     1
*Elset, elset=Set-1, generate
   1,  449,    1
** Section: CoCr-imp-section
*Solid Section, elset=Set-1, material=Co-Cr
22.5,
*End Instance
**  
*Instance, name=haste-implante-Copy05-1, part=haste-implante-Copy05
   11.616684,     9.791408,           0.
*Node
      1,  -15.6942072,   7.93754864
      2,  -3.00125122,   20.1393528
      3,  -13.9502182,   6.12336016
      4,  -13.0424671,   6.99494743
      5,  -13.8682261,    7.8549695
      6,  -11.4507589,   10.1761265
      7,      -10.625,   9.31610394
      8,       -0.625,  -1.09882081
      9,   5.72687578,           5.
     10,  -4.27312422,   15.4149246
     11,  -5.09888363,   16.2749462
     12,   -2.9272933,   18.3600216
     13,  -2.10153389,         17.5
     14,        -1.25,   18.3176098
     15,  -14.6364613,   8.95436573
     16,  -13.5787144,   9.97118282
     17,  -12.5209684,   10.9879999
     18,  -11.4632225,    12.004817
     19,  -10.4054756,   13.0216341
     20,  -9.34772968,   14.0384502
** ... 297 like lines cut
*Element, type=CPS8R
 1,   1,  26,   5,  15, 116, 117, 118, 119
 2,   3,   4,   5,  26, 120, 121, 117, 122
 3,  27,  16,  15,   5, 123, 124, 118, 125
 4, 114,  74,   6,   7, 126, 127, 128, 129
 5,  11,  51,  24,  23, 130, 131, 132, 133
 6,   2,  25,  12,  52, 134, 135, 136, 137
 7,  14,  52,  12,  13, 138, 136, 139, 140
 8,  78,  73,  72,  96, 141, 142, 143, 144
 9,  71,  94,  95,  70, 145, 146, 147, 148
10, 110, 101, 112, 108, 149, 150, 151, 152
11, 110, 108,  92,  80, 152, 153, 154, 155
12,  17,  16,  27,   6, 156, 123, 157, 158
13,  18,  17,   6,  74, 159, 158, 127, 160
14,  54,  69,  28,  29, 161, 162, 163, 164
15,  71,  70,  20,  19, 148, 165, 166, 167
16,  70,  72,  21,  20, 168, 169, 170, 165
17,  23,  22,  73,  11, 171, 172, 173, 133
18,  25,  24,  51,  12, 174, 131, 175, 135
19,  49,  63,  65,  48, 176, 177, 178, 179
20,  57,  55,  32,  33, 180, 181, 182, 183
** ... 68 like lines cut
*Nset, nset=Set-1, generate
   1,  317,    1
*Elset, elset=Set-1, generate
  1,  88,   1
** Section: Tit-imp-sect
*Solid Section, elset=Set-1, material=titanium
22.5,
*End Instance
**  
*Instance, name=Part-2-1, part=Part-2
*Node
      1,   1.60713303,  -5.21631813
      2,  -12.7617197,   9.38079548
      3,  -16.1583061,   6.11564016
      4,        -3.75,        -42.5
      5,         22.5,        -42.5
      6,   32.0912018,   34.5065269
      7,   28.0805187,   37.9066734
      8,   20.5994301,   41.4510384
      9,    17.712738,   38.6760483
     10,   21.4632149,   4.68479967
     11,  -9.86786747,   4.68479967
     12,  -4.07752371,   17.7289562
     13,   8.61543274,   29.9307613
     14,    10.366684,   28.1090164
     15,   9.51515007,   27.2914085
     16,   8.68939114,   28.1514301
     17,   6.51780033,   26.0663548
     18,   7.34355974,   25.2063332
     19,   17.3435593,   14.7914076
     20,    10.991684,    8.6925869
** ... 4119 like lines cut
*Element, type=CPS8R
  1,  392,    1,   26,  849, 1411, 1412, 1413, 1414
  2,   26,   27,  393,  849, 1415, 1416, 1417, 1413
  3,  395,  549,  393,   27, 1418, 1419, 1416, 1420
  4,  641,  313,  672,  869, 1421, 1422, 1423, 1424
  5,  718,  481,  223,  224, 1425, 1426, 1427, 1428
  6,  712,  480,  221,  222, 1429, 1430, 1431, 1432
  7,  477,  476,  218,  219, 1433, 1434, 1435, 1436
  8,  476,  478,  217,  218, 1437, 1438, 1439, 1434
  9,  492,  606,  630,  556, 1440, 1441, 1442, 1443
 10,  367,  425,  556,  603, 1444, 1445, 1446, 1447
 11,  156,  157,  581,  499, 1448, 1449, 1450, 1451
 12,  157,  158,  366,  581, 1452, 1453, 1454, 1449
 13,  158,  159,  511,  366, 1455, 1456, 1457, 1453
 14,  210,  420,  419,  209, 1458, 1459, 1460, 1461
 15,  369,  211,  212,  424, 1462, 1463, 1464, 1465
 16,  424,  212,  213,  425, 1464, 1466, 1467, 1468
 17,  486,  492,  214,  215, 1469, 1470, 1471, 1472
 18,   28,  396,  395,   27, 1473, 1474, 1420, 1475
 19,  396,   28,   29,  397, 1473, 1476, 1477, 1478
 20,  533,  532,  567,  609, 1479, 1480, 1481, 1482
** ... 1300 like lines cut
*Nset, nset=Set-1
    1,    2,    9,   10,   11,   12,   13,   14,   15,   16,   17,   18,   19,   20,   21,   22
   23,   24,   25,   26,   27,   28,   29,   30,   31,   32,   33,   34,   35,   36,   37,   38
   39,   40,   41,   42,   43,   44,   45,   46,   47,   48,   49,   50,   51,   52,   53,   54
   55,   56,   57,   58,   59,   60,   61,   62,   63,   64,   65,   66,   67,   68,   69,   70
   71,   72,  188,  189,  190,  191,  192,  193,  194,  195,  196,  197,  198,  199,  200,  201
  202,  203,  204,  205,  206,  207,  208,  209,  210,  211,  212,  213,  214,  215,  216,  217
  218,  219,  220,  221,  222,  223,  224,  225,  226,  227,  228,  229,  230,  231,  232,  233
  234,  235,  236,  237,  238,  239,  240,  241,  242,  243,  244,  245,  246,  247,  248,  249
  250,  251,  252,  253,  254,  255,  256,  257,  258,  259,  260,  261,  262,  263,  264,  265
  266,  267,  268,  269,  270,  271,  272,  273,  274,  275,  276,  277,  932,  933,  934,  935
  936,  937,  938,  939,  940,  941,  942,  943,  944,  945,  946,  947,  948,  949,  950,  951
  952,  953,  954,  955,  956,  957,  958,  959,  960,  961,  962,  963,  964,  965,  966,  967
  968,  969,  970,  971,  972,  973,  974,  975,  976,  977,  978,  979,  980,  981,  982,  983
  984,  985,  986,  987,  988,  989,  990,  991,  992,  993,  994,  995,  996,  997,  998,  999
 1000, 1001, 1002, 1003, 1004, 1005, 1006, 1007, 1008, 1009, 1010, 1011, 1012, 1013, 1014, 1015
 1016, 1017, 1018, 1019, 1020, 1021, 1022, 1023, 1024, 1025, 1026, 1027, 1028, 1029, 1030, 1031
 1032, 1033, 1034, 1035, 1036, 1037, 1038, 1039, 1040, 1041, 1042, 1043, 1044, 1045, 1046, 1047
 1048, 1049, 1050, 1051, 1052, 1053, 1054, 1055, 1056, 1057, 1058, 1059, 1060, 1061, 1062, 1063
 1064, 1065, 1066, 1067, 1068, 1069, 1070, 1071, 1072, 1073, 1074, 1075, 1076, 1077, 1078, 1079
 1080, 1081, 1082, 1083, 1084, 1085, 1086, 1087, 1088, 1089, 1090, 1091, 1092, 1093, 1094, 1095
** ... 94 like lines cut
*Elset, elset=Set-1, generate
  766,  1320,     1
*Nset, nset=Set-2
    1,    2,    3,    4,    5,    6,    7,    8,    9,   10,   11,   26,   27,   28,   29,   30
   31,   32,   33,   34,   35,   36,   37,   38,   39,   40,   41,   42,   43,   44,   45,   46
   47,   48,   49,   50,   51,   52,   53,   54,   55,   56,   57,   58,   59,   60,   61,   62
   63,   64,   65,   66,   67,   68,   69,   70,   71,   72,   73,   74,   75,   76,   77,   78
   79,   80,   81,   82,   83,   84,   85,   86,   87,   88,   89,   90,   91,   92,   93,   94
   95,   96,   97,   98,   99,  100,  101,  102,  103,  104,  105,  106,  107,  108,  109,  110
  111,  112,  113,  114,  115,  116,  117,  118,  119,  120,  121,  122,  123,  124,  125,  126
  127,  128,  129,  130,  131,  132,  133,  134,  135,  136,  137,  138,  139,  140,  141,  142
  143,  144,  145,  146,  147,  148,  149,  150,  151,  152,  153,  154,  155,  156,  157,  158
  159,  160,  161,  162,  163,  164,  165,  166,  167,  168,  169,  170,  171,  172,  173,  174
  175,  176,  177,  178,  179,  180,  181,  182,  183,  184,  185,  186,  187,  188,  189,  190
  191,  192,  193,  194,  195,  196,  197,  198,  199,  200,  201,  202,  203,  204,  205,  206
  207,  208,  209,  210,  211,  212,  213,  214,  215,  216,  217,  218,  219,  220,  221,  222
  223,  224,  225,  226,  227,  228,  229,  230,  231,  232,  233,  234,  235,  236,  278,  279
  280,  281,  282,  283,  284,  285,  286,  287,  288,  289,  290,  291,  292,  293,  294,  295
  296,  297,  298,  299,  300,  301,  302,  303,  304,  305,  306,  307,  308,  309,  310,  311
  312,  313,  314,  315,  316,  317,  318,  319,  320,  321,  322,  323,  324,  325,  326,  327
  328,  329,  330,  331,  332,  333,  334,  335,  336,  337,  338,  339,  340,  341,  342,  343
  344,  345,  346,  347,  348,  349,  350,  351,  352,  353,  354,  355,  356,  357,  358,  359
  360,  361,  362,  363,  364,  365,  366,  367,  368,  369,  370,  371,  372,  373,  374,  375
** ... 138 like lines cut
*Elset, elset=Set-2, generate
   1,  765,    1
** Section: osso-section
*Solid Section, elset=Set-2, material=osso-cortical
22.5,
** Section: osso-trabecular-sect
*Solid Section, elset=Set-1, material=osso-trabecular
22.5,
*End Instance
**  
*Node
      1,   6.20557117,   19.7347832,           0.
*Node
      2,  -0.43563953,     45.25354,           0.
*Node
      3,   30.2997513,   36.4519157,           0.
*Nset, nset=DIV-05imp, instance=Part-2-1
 2328, 3317
*Nset, nset=DIV-05imp, instance=haste-implante-Copy05-1
 261,
*Nset, nset=DIV-05imp, instance=cabeça-implante-1
 1404,
*Nset, nset=Set-125
 2,
*Nset, nset=Set-126
 3,
*Nset, nset=Set-127, instance=Part-2-1
    4,    5,  110,  111,  112,  113,  114,  115,  116,  117,  118,  119,  120,  121,  122,  123
  124,  125,  126, 1591, 1598, 1865, 1868, 1892, 1919, 1939, 1950, 1951, 1959, 2488, 2491, 2493
 2494, 2497, 2502, 2670, 2677
*Elset, elset=Set-127, instance=Part-2-1
  51,  53, 129, 130, 136, 143, 148, 151, 152, 154, 328, 329, 330, 331, 332, 334
 422, 428
*Nset, nset=m_Set-121
 2,
*Nset, nset=m_Set-122
 3,
*Nset, nset=m_Set-123
 1,
*Nset, nset=m_Set-124
 1,
*Elset, elset=_m_Surf-61_S2, internal, instance=cabeça-implante-1
   2,  18,  20,  25,  27,  78,  84, 100, 122, 127, 132, 443
*Elset, elset=_m_Surf-61_S4, internal, instance=cabeça-implante-1
 12, 21, 22, 26, 38, 39, 42, 44
*Elset, elset=_m_Surf-61_S3, internal, instance=cabeça-implante-1
 47,
*Elset, elset=_m_Surf-61_S1, internal, instance=cabeça-implante-1
 48,
*Surface, type=ELEMENT, name=m_Surf-61
_m_Surf-61_S2, S2
_m_Surf-61_S4, S4
_m_Surf-61_S3, S3
_m_Surf-61_S1, S1
*Elset, elset=_m_Surf-63_S1, internal, instance=haste-implante-Copy05-1
  1,  2,  5,  7, 25, 31, 40, 41, 43, 44, 56
*Elset, elset=_m_Surf-63_S4, internal, instance=haste-implante-Copy05-1
  2,  3,  6,  7, 19, 21, 26, 29, 30, 39, 42, 52, 54
*Elset, elset=_m_Surf-63_S2, internal, instance=haste-implante-Copy05-1
  2, 23, 31, 47, 48, 49
*Elset, elset=_m_Surf-63_S3, internal, instance=haste-implante-Copy05-1
  4,  7, 12, 14, 18, 20, 26, 33, 36, 37
*Surface, type=ELEMENT, name=m_Surf-63
_m_Surf-63_S1, S1
_m_Surf-63_S4, S4
_m_Surf-63_S2, S2
_m_Surf-63_S3, S3
*Elset, elset=_m_Surf-65_S2, internal, instance=cabeça-implante-1
  13,  16,  31,  82,  83, 117
*Elset, elset=_m_Surf-65_S4, internal, instance=cabeça-implante-1
 14, 28, 29, 33, 34, 79
*Surface, type=ELEMENT, name=m_Surf-65
_m_Surf-65_S2, S2
_m_Surf-65_S4, S4
*Elset, elset=_s_Surf-61_S4, internal, instance=Part-2-1
 100, 101, 949, 986, 988
*Elset, elset=_s_Surf-61_S2, internal, instance=Part-2-1
  313, 1012
*Elset, elset=_s_Surf-61_S3, internal, instance=Part-2-1
  208,  919,  920,  933,  945,  954, 1022, 1023, 1099
*Elset, elset=_s_Surf-61_S1, internal, instance=Part-2-1
  353,  379,  982,  987, 1083, 1089
*Surface, type=ELEMENT, name=s_Surf-61
_s_Surf-61_S4, S4
_s_Surf-61_S2, S2
_s_Surf-61_S3, S3
_s_Surf-61_S1, S1
*Elset, elset=_s_Surf-63_S2, internal, instance=Part-2-1
  987,  989, 1008, 1014, 1082, 1106
*Elset, elset=_s_Surf-63_S4, internal, instance=Part-2-1
  936,  943, 1011
*Elset, elset=_s_Surf-63_S1, internal, instance=Part-2-1
  936,  943,  958,  959,  976,  989,  991, 1006, 1011, 1012, 1033, 1046, 1061, 1062, 1063
*Elset, elset=_s_Surf-63_S3, internal, instance=Part-2-1
  923,  937,  938,  975,  977,  999, 1001, 1002, 1003, 1005, 1007, 1009, 1024, 1026, 1037, 1039
*Surface, type=ELEMENT, name=s_Surf-63
_s_Surf-63_S2, S2
_s_Surf-63_S4, S4
_s_Surf-63_S1, S1
_s_Surf-63_S3, S3
*Elset, elset=_s_Surf-65_S4, internal, instance=haste-implante-Copy05-1
 1,
*Elset, elset=_s_Surf-65_S2, internal, instance=haste-implante-Copy05-1
 3,
*Elset, elset=_s_Surf-65_S3, internal, instance=haste-implante-Copy05-1
  5, 15, 16, 55
*Elset, elset=_s_Surf-65_S1, internal, instance=haste-implante-Copy05-1
  6, 12, 13, 17, 18, 59
*Surface, type=ELEMENT, name=s_Surf-65
_s_Surf-65_S4, S4
_s_Surf-65_S2, S2
_s_Surf-65_S3, S3
_s_Surf-65_S1, S1
*Elset, elset=_s_Surf-67_S2, internal, instance=cabeça-implante-1
  6, 81
*Elset, elset=_s_Surf-67_S4, internal, instance=cabeça-implante-1
 11, 37, 56
*Surface, type=ELEMENT, name=s_Surf-67
_s_Surf-67_S2, S2
_s_Surf-67_S4, S4
*Elset, elset=_s_Surf-68_S4, internal, instance=Part-2-1
 189, 191, 192
*Elset, elset=_s_Surf-68_S2, internal, instance=Part-2-1
 190,
*Surface, type=ELEMENT, name=s_Surf-68
_s_Surf-68_S4, S4
_s_Surf-68_S2, S2
*Elset, elset=_s_Surf-69_S2, internal, instance=cabeça-implante-1
  6, 81
*Elset, elset=_s_Surf-69_S4, internal, instance=cabeça-implante-1
 11, 37, 56
*Surface, type=ELEMENT, name=s_Surf-69
_s_Surf-69_S2, S2
_s_Surf-69_S4, S4
*Elset, elset=_s_Surf-70_S4, internal, instance=Part-2-1
 189, 191, 192
*Elset, elset=_s_Surf-70_S2, internal, instance=Part-2-1
 190,
*Surface, type=ELEMENT, name=s_Surf-70
_s_Surf-70_S4, S4
_s_Surf-70_S2, S2
** Constraint: Constraint-1
*Tie, name=Constraint-1, adjust=yes, type=SURFACE TO SURFACE
s_Surf-61, m_Surf-61
** Constraint: Constraint-2
*Tie, name=Constraint-2, adjust=yes, type=SURFACE TO SURFACE
s_Surf-63, m_Surf-63
** Constraint: Constraint-3
*Tie, name=Constraint-3, adjust=yes, type=SURFACE TO SURFACE
s_Surf-65, m_Surf-65
** Constraint: Constraint-4
*Coupling, constraint name=Constraint-4, ref node=m_Set-121, surface=s_Surf-67
*Distributing, weighting method=UNIFORM
** Constraint: Constraint-5
*Coupling, constraint name=Constraint-5, ref node=m_Set-122, surface=s_Surf-68
*Distributing, weighting method=UNIFORM
** Constraint: Constraint-6
*Coupling, constraint name=Constraint-6, ref node=m_Set-123, surface=s_Surf-69
*Distributing, weighting method=UNIFORM
** Constraint: Constraint-7
*Coupling, constraint name=Constraint-7, ref node=m_Set-124, surface=s_Surf-70
*Distributing, weighting method=UNIFORM
*End Assembly
** 
** MATERIALS
** 
*Material, name=Co-Cr
*Elastic
230000., 0.3
*Material, name=alumina
*Elastic
380000., 0.21
*Material, name=osso-cortical
*Elastic
17000., 0.3
*Material, name=osso-trabecular
*Elastic
1380., 0.3
*Material, name=stainless-steel-316
*Elastic
200000., 0.3
*Material, name=titanium
*Elastic
110000., 0.3
** ----------------------------------------------------------------
** 
** STEP: Step-1
** 
*Step, name=Step-1, nlgeom=NO
*Static
1., 1., 1e-05, 1.
** 
** BOUNDARY CONDITIONS
** 
** Name: BC-1 Type: Symmetry/Antisymmetry/Encastre
*Boundary
Set-127, ENCASTRE
** 
** LOADS
** 
** Name: Load-1   Type: Concentrated force
*Cload
Set-125, 1, 150.
Set-125, 2, -259.
** Name: Load-2   Type: Concentrated force
*Cload
Set-126, 1, -50.
Set-126, 2, 89.
** 
** OUTPUT REQUESTS
** 
*Restart, write, frequency=0
** 
** FIELD OUTPUT: F-Output-1
** 
*Output, field, variable=PRESELECT
** 
** HISTORY OUTPUT: H-Output-1
** 
*Output, history, variable=PRESELECT
*End Step
