*Heading
** Job name: DIV-NOIMP Model name: Model-1
** Generated by: Abaqus/CAE 2022
*Preprint, echo=NO, model=NO, history=NO, contact=NO
**
** PARTS
**
*Part, name=osso
*End Part
**  
**
** ASSEMBLY
**
*Assembly, name=Assembly
**  
*Instance, name=osso-4, part=osso
*Node
      1,  -4.76786709,   2.43368196
      2, -0.942866981,  -5.21631813
      3,        -3.75,        -42.5
      4,         22.5,        -42.5
      5,   25.2538605,  -15.0587225
      6,   28.9005451,   7.19905329
      7,   32.1227226,   34.4562111
      8,   27.5368309,   38.1999474
      9,   14.2394934,    43.807106
     10,   -3.7290206,   42.8246994
     11,  -8.00099087,   40.5162544
     12,  -3.61857343,  -24.8145161
     13,  -3.30082607,   2.13316894
     14,  -1.80153012,   2.10908461
     15, -0.306305408,   2.23554778
     16,     1.185794,   2.39678383
     17,   2.68327832,   2.49312687
     18,   4.18388081,   2.50902081
     19,   5.68436861,   2.47965288
     20,   7.18471193,   2.44284916
** ... 5735 like lines cut
*Element, type=CPS8R
  1,  712,  247,  248,  577, 1947, 1948, 1949, 1950
  2,  576,  715,  828,  313, 1951, 1952, 1953, 1954
  3,  545,  546,   81,   80, 1955, 1956, 1957, 1958
  4,   82,   81,  546,  309, 1959, 1956, 1960, 1961
  5,  548,  545,   80,   79, 1962, 1958, 1963, 1964
  6,  544,  548,   79,   78, 1965, 1964, 1966, 1967
  7,  540,  771, 1043,  738, 1968, 1969, 1970, 1971
  8,  315,  540,   77,   76, 1972, 1973, 1974, 1975
  9,  925,  774,  966,  315, 1976, 1977, 1978, 1979
 10,  318,  677,  774,  768, 1980, 1981, 1982, 1983
 11,  236,  571,  572,  235, 1984, 1985, 1986, 1987
 12,  234,  574,  575,   11, 1988, 1989, 1990, 1991
 13,  571,  318,  678,  572, 1992, 1993, 1994, 1985
 14,  679,  574,  572,  678, 1995, 1996, 1994, 1997
 15,  577,  248,  249,  578, 1949, 1998, 1999, 2000
 16,   88,   87,  549,  306, 2001, 2002, 2003, 2004
 17,   90,   89,  537,  304, 2005, 2006, 2007, 2008
 18,  646,  918,  436,  437, 2009, 2010, 2011, 2012
 19,   93,   92,  521,  519, 2013, 2014, 2015, 2016
 20,  928,  438,   95,   94, 2017, 2018, 2019, 2020
** ... 1844 like lines cut
*Nset, nset=set-osso, generate
    1,  5755,     1
*Elset, elset=set-osso, generate
    1,  1864,     1
*Nset, nset=Set-2
    1,    2,    3,    4,    5,    6,    7,    8,    9,   10,   11,   12,   13,   14,   15,   16
   17,   18,   19,   20,   21,   22,   23,   24,   25,   26,   27,   28,   29,   30,   31,   32
   33,   34,   35,   36,   37,   38,   39,   40,   41,   42,   43,   44,   45,   46,   47,   48
   49,   50,   51,   52,   53,   54,   55,   56,   57,   58,   59,   60,   61,   62,   63,   64
   65,   66,   67,   68,   69,   70,   71,   72,   73,   74,   75,   76,   77,   78,   79,   80
   81,   82,   83,   84,   85,   86,   87,   88,   89,   90,   91,   92,   93,   94,   95,   96
   97,   98,   99,  100,  101,  102,  103,  104,  105,  106,  107,  108,  109,  110,  111,  112
  113,  114,  115,  116,  117,  118,  119,  120,  121,  122,  123,  124,  125,  126,  127,  128
  129,  130,  131,  132,  133,  134,  135,  136,  137,  138,  139,  140,  141,  142,  143,  144
  145,  146,  147,  148,  149,  150,  151,  152,  153,  154,  155,  156,  157,  158,  159,  160
  161,  162,  163,  164,  165,  166,  167,  168,  169,  170,  171,  172,  173,  174,  175,  176
  177,  178,  179,  180,  181,  182,  183,  184,  185,  186,  187,  188,  189,  190,  191,  192
  193,  194,  195,  196,  197,  198,  199,  200,  201,  202,  203,  204,  205,  206,  207,  208
  209,  210,  211,  212,  213,  214,  215,  216,  217,  218,  219,  220,  221,  222,  223,  224
  225,  226,  227,  228,  229,  230,  231,  232,  233,  234,  235,  236,  237,  238,  239,  240
  241,  242,  243,  244,  245,  246,  247,  248,  249,  250,  251,  252,  253,  254,  255,  256
  257,  258,  259,  260,  261,  262,  263,  264,  265,  266,  267,  268,  269,  270,  271,  272
  273,  274,  275,  276,  277,  278,  279,  280,  281,  282,  283,  284,  285,  286,  287,  288
  289,  290,  291,  292,  293,  294,  295,  296,  297,  298,  299,  300,  301,  302,  303,  304
  305,  306,  307,  308,  309,  310,  311,  312,  313,  314,  315,  316,  317,  318,  319,  320
** ... 181 like lines cut
*Elset, elset=Set-2, generate
   1,  974,    1
*Nset, nset=Set-3
    1,    2,   13,   14,   15,   16,   17,   18,   19,   20,   21,   22,   23,   24,   25,   26
   27,   28,   29,   30,   31,   32,   33,   34,   35,   36,   37,   38,   39,   40,   41,   42
   43,   44,   45,   46,   47,   48,   49,   50,   51,   52,   53,   54,   55,   56,   57,   58
   59,   60,   61,   62,   63,   64,   65,   66,   67,   68,   69,   70,   71,   72,   73,   74
   75,   76,   77,   78,   79,   80,   81,   82,   83,   84,   85,   86,   87,   88,   89,   90
   91,   92,   93,   94,   95,   96,   97,   98,   99,  100,  101,  102,  103,  104,  105,  106
  107,  108,  109,  110,  111,  112,  113,  114,  115,  116,  117,  118,  119,  120,  121,  122
  123,  124,  125,  126,  127,  128,  129,  130,  131,  132,  133,  134,  135,  136,  137,  138
  139,  140,  141,  142, 1121, 1122, 1123, 1124, 1125, 1126, 1127, 1128, 1129, 1130, 1131, 1132
 1133, 1134, 1135, 1136, 1137, 1138, 1139, 1140, 1141, 1142, 1143, 1144, 1145, 1146, 1147, 1148
 1149, 1150, 1151, 1152, 1153, 1154, 1155, 1156, 1157, 1158, 1159, 1160, 1161, 1162, 1163, 1164
 1165, 1166, 1167, 1168, 1169, 1170, 1171, 1172, 1173, 1174, 1175, 1176, 1177, 1178, 1179, 1180
 1181, 1182, 1183, 1184, 1185, 1186, 1187, 1188, 1189, 1190, 1191, 1192, 1193, 1194, 1195, 1196
 1197, 1198, 1199, 1200, 1201, 1202, 1203, 1204, 1205, 1206, 1207, 1208, 1209, 1210, 1211, 1212
 1213, 1214, 1215, 1216, 1217, 1218, 1219, 1220, 1221, 1222, 1223, 1224, 1225, 1226, 1227, 1228
 1229, 1230, 1231, 1232, 1233, 1234, 1235, 1236, 1237, 1238, 1239, 1240, 1241, 1242, 1243, 1244
 1245, 1246, 1247, 1248, 1249, 1250, 1251, 1252, 1253, 1254, 1255, 1256, 1257, 1258, 1259, 1260
 1261, 1262, 1263, 1264, 1265, 1266, 1267, 1268, 1269, 1270, 1271, 1272, 1273, 1274, 1275, 1276
 1277, 1278, 1279, 1280, 1281, 1282, 1283, 1284, 1285, 1286, 1287, 1288, 1289, 1290, 1291, 1292
 1293, 1294, 1295, 1296, 1297, 1298, 1299, 1300, 1301, 1302, 1303, 1304, 1305, 1306, 1307, 1308
** ... 156 like lines cut
*Elset, elset=Set-3, generate
  975,  1864,     1
** Section: osso-section
*Solid Section, elset=Set-2, material=osso
22.5,
** Section: tab-sect
*Solid Section, elset=Set-3, material=trabecular
22.5,
*End Instance
**  
*Node
      1,  -6.01999998,   41.7099991,           0.
*Node
      2,   29.8199997,   36.8199997,           0.
*Node
      3,   7.30999994,   18.3700008,           0.
*Nset, nset=DIV-NOIMP, instance=osso-4
 3964, 5649
*Nset, nset=Set-2
 1,
*Nset, nset=Set-4
 2,
*Nset, nset=base-osso, instance=osso-4
    3,    4,  143,  144,  145,  146,  147,  148,  149,  150,  151,  152,  153,  154,  155,  156
  157,  158,  159, 2494, 2501, 2773, 2776, 2783, 2792, 2800, 2801, 2805, 3317, 3318, 3324, 3327
 3333, 3427, 3486, 3492, 3497
*Elset, elset=base-osso, instance=osso-4
 157, 159, 237, 238, 240, 242, 244, 245, 246, 424, 425, 428, 429, 431, 477, 517
 522, 525
*Nset, nset=m_Set-3
 1,
*Nset, nset=m_Set-5
 2,
*Nset, nset=m_Set-7
 3,
*Nset, nset=m_Set-8
 3,
*Nset, nset=test-points, instance=osso-4
  5,  6,  9, 12
*Elset, elset=_s_Surf-1_S2, internal, instance=osso-4
 265,
*Elset, elset=_s_Surf-1_S4, internal, instance=osso-4
 267, 268
*Surface, type=ELEMENT, name=s_Surf-1
_s_Surf-1_S2, S2
_s_Surf-1_S4, S4
*Elset, elset=_s_Surf-2_S4, internal, instance=osso-4
 70,
*Elset, elset=_s_Surf-2_S2, internal, instance=osso-4
  77,  78, 447
*Surface, type=ELEMENT, name=s_Surf-2
_s_Surf-2_S4, S4
_s_Surf-2_S2, S2
*Elset, elset=_s_Surf-3_S2, internal, instance=osso-4
 265,
*Elset, elset=_s_Surf-3_S4, internal, instance=osso-4
 267, 268
*Surface, type=ELEMENT, name=s_Surf-3
_s_Surf-3_S2, S2
_s_Surf-3_S4, S4
*Elset, elset=_s_Surf-4_S4, internal, instance=osso-4
 70,
*Elset, elset=_s_Surf-4_S2, internal, instance=osso-4
  77,  78, 447
*Surface, type=ELEMENT, name=s_Surf-4
_s_Surf-4_S4, S4
_s_Surf-4_S2, S2
** Constraint: Constraint-1
*Coupling, constraint name=Constraint-1, ref node=m_Set-3, surface=s_Surf-1
*Distributing, weighting method=UNIFORM
** Constraint: Constraint-2
*Coupling, constraint name=Constraint-2, ref node=m_Set-5, surface=s_Surf-2
*Distributing, weighting method=UNIFORM
** Constraint: Constraint-3
*Coupling, constraint name=Constraint-3, ref node=m_Set-7, surface=s_Surf-3
*Distributing, weighting method=UNIFORM
** Constraint: Constraint-4
*Coupling, constraint name=Constraint-4, ref node=m_Set-8, surface=s_Surf-4
*Distributing, weighting method=UNIFORM
*End Assembly
** 
** MATERIALS
** 
*Material, name=osso
*Elastic
17000., 0.3
*Material, name=trabecular
*Elastic
1380., 0.3
** ----------------------------------------------------------------
** 
** STEP: step-1
** 
*Step, name=step-1, nlgeom=NO
*Static
1., 1., 1e-05, 1.
** 
** BOUNDARY CONDITIONS
** 
** Name: encastre-osso Type: Symmetry/Antisymmetry/Encastre
*Boundary
base-osso, ENCASTRE
** 
** LOADS
** 
** Name: FH2   Type: Concentrated force
*Cload
Set-2, 1, 150.
Set-2, 2, -259.
** Name: Load-2   Type: Concentrated force
*Cload
Set-4, 1, -50.
Set-4, 2, 86.
** 
** OUTPUT REQUESTS
** 
*Restart, write, frequency=0
** 
** FIELD OUTPUT: F-Output-1
** 
*Output, field, variable=PRESELECT
** 
** HISTORY OUTPUT: H-Output-1
** 
*Output, history, variable=PRESELECT
*End Step
