*Heading
** Job name: quad-quad-05 Model name: Model-1
** Generated by: Abaqus/CAE 2022
*Preprint, echo=NO, model=NO, history=NO, contact=NO
**
** PARTS
**
*Part, name=osso
*End Part
**  
**
** ASSEMBLY
**
*Assembly, name=Assembly
**  
*Instance, name=osso-4, part=osso
*Node
      1,  -2.75943398,        -42.5
      2,  -1.76886797,        -42.5
      3, -0.283018857,        -42.5
      4,  0.707547188,        -42.5
      5,    1.6981132,        -42.5
      6,   2.68867922,        -42.5
      7,   3.67924523,        -42.5
      8,   5.16509438,        -42.5
      9,   6.15566015,        -42.5
     10,   7.14622641,        -42.5
     11,   8.13679218,        -42.5
     12,   9.12735844,        -42.5
     13,   10.6132078,        -42.5
     14,   11.6037731,        -42.5
     15,   12.5943394,        -42.5
     16,   13.5849056,        -42.5
     17,    15.070755,        -42.5
     18,   16.0613213,        -42.5
     19,   17.0518875,        -42.5
     20,   18.0424538,        -42.5
** ... 48544 like lines cut
*Element, type=CPS8R
    1,   257,   226,  3281,  3325, 16270, 16271, 16272, 16273
    2,  3895,  3624,   257,  3991, 16274, 16275, 16276, 16277
    3,   256,  3739,  3951,  4863, 16278, 16279, 16280, 16281
    4,  4189,  4301,  3978, 13423, 16282, 16283, 16284, 16285
    5,   254,  3999, 13423,  3978, 16286, 16287, 16284, 16288
    6,  4279,  3824,  4135, 13389, 16289, 16290, 16291, 16292
    7,  3998,  3878,  4165,   277, 16293, 16294, 16295, 16296
    8,   251,  3743,  3940,  4040, 16297, 16298, 16299, 16300
    9,  4069,   275,  4185,  3940, 16301, 16302, 16303, 16304
   10,  4541,  4394,   249,  4687, 16305, 16306, 16307, 16308
   11,  5525,  5536,   273,   274, 16309, 16310, 16311, 16312
   12,   246,  7288,  7340,  7790, 16313, 16314, 16315, 16316
   13,  4872,  5101,  4996,   245, 16317, 16318, 16319, 16320
   14,  4732,  4627,  4480, 13354, 16321, 16322, 16323, 16324
   15,  4284,  3831,  4140,   269, 16325, 16326, 16327, 16328
   16,  4004,  3976,  4203,   268, 16329, 16330, 16331, 16332
   17,  4310,   242,  4329,   267, 16333, 16334, 16335, 16336
   18,  4303,  4195,  4081, 13359, 16337, 16338, 16339, 16340
   19,   240,  3736,  3963,  4081, 16341, 16342, 16343, 16344
   20,   239,  3732,  3955,  4072, 16345, 16346, 16347, 16348
** ... 16007 like lines cut
*Nset, nset=set-osso, generate
     1,  48564,      1
*Elset, elset=set-osso, generate
     1,  16027,      1
** Section: osso-section
*Solid Section, elset=set-osso, material=osso
22.5,
*End Instance
**  
*Node
      1,  -6.01999998,   41.7099991,           0.
*Node
      2,   29.8199997,   36.8199997,           0.
*Node
      3,   7.30999994,   18.3700008,           0.
*Nset, nset=Set-2
 1,
*Nset, nset=Set-4
 2,
*Nset, nset=base-osso, instance=osso-4
     1,     2,     3,     4,     5,     6,     7,     8,     9,    10,    11,    12,    13,    14,    15,    16
    17,    18,    19,    20,    21,    22,    23,    24,    25,  3026,  3027,  3028,  3029,  3030,  3031,  3032
  3033,  3034,  3035,  3036,  3037,  3038,  3039,  3040,  3041,  3042,  3043,  3044,  3045,  3046,  3047,  3048
  3049,  3050,  3051,  3052,  3053,  3054, 16692, 16700, 16708, 16730, 16734, 16738, 16756, 16760, 16764, 16772
 16778, 16786, 21427, 21445, 21450, 21452, 21455, 21471, 21476, 21483, 21487, 34266, 34270, 34271, 34273, 34276
 34278, 34280, 34281, 34288, 34290, 34293, 34294, 34296, 34300, 34303, 34305, 34308, 34316, 34320, 34587, 34589
 34591, 34592, 34593, 34594, 34596, 34598, 34601, 34604, 34612, 34615, 34624
*Elset, elset=base-osso, instance=osso-4
  110,  112,  114,  120,  121,  122,  126,  127,  128,  130,  132,  134, 1394, 1399, 1400, 1401
 1402, 1406, 1408, 1410, 1412, 5288, 5289, 5290, 5291, 5292, 5293, 5294, 5295, 5297, 5298, 5299
 5301, 5302, 5304, 5305, 5306, 5307, 5312, 5314, 5455, 5456, 5457, 5458, 5459, 5460, 5461, 5463
 5467, 5469, 5474, 5476, 5483
*Nset, nset=m_Set-3
 1,
*Nset, nset=m_Set-5
 2,
*Nset, nset=m_Set-7
 3,
*Nset, nset=m_Set-8
 3,
*Nset, nset=test-points, instance=osso-4
  51,  67, 115, 211
*Elset, elset=_s_Surf-1_S4, internal, instance=osso-4
  677,  822, 4400, 5390
*Elset, elset=_s_Surf-1_S2, internal, instance=osso-4
  825, 4337, 5386, 5387, 5388, 5389
*Surface, type=ELEMENT, name=s_Surf-1
_s_Surf-1_S4, S4
_s_Surf-1_S2, S2
*Elset, elset=_s_Surf-2_S3, internal, instance=osso-4
  355,  356, 5510
*Elset, elset=_s_Surf-2_S4, internal, instance=osso-4
  573,  576, 5284, 5364
*Elset, elset=_s_Surf-2_S2, internal, instance=osso-4
  574,  575, 5362, 5624
*Elset, elset=_s_Surf-2_S1, internal, instance=osso-4
 5363,
*Surface, type=ELEMENT, name=s_Surf-2
_s_Surf-2_S3, S3
_s_Surf-2_S4, S4
_s_Surf-2_S2, S2
_s_Surf-2_S1, S1
*Elset, elset=_s_Surf-3_S4, internal, instance=osso-4
  677,  822, 4400, 5390
*Elset, elset=_s_Surf-3_S2, internal, instance=osso-4
  825, 4337, 5386, 5387, 5388, 5389
*Surface, type=ELEMENT, name=s_Surf-3
_s_Surf-3_S4, S4
_s_Surf-3_S2, S2
*Elset, elset=_s_Surf-4_S3, internal, instance=osso-4
  355,  356, 5510
*Elset, elset=_s_Surf-4_S4, internal, instance=osso-4
  573,  576, 5284, 5364
*Elset, elset=_s_Surf-4_S2, internal, instance=osso-4
  574,  575, 5362, 5624
*Elset, elset=_s_Surf-4_S1, internal, instance=osso-4
 5363,
*Surface, type=ELEMENT, name=s_Surf-4
_s_Surf-4_S3, S3
_s_Surf-4_S4, S4
_s_Surf-4_S2, S2
_s_Surf-4_S1, S1
** Constraint: Constraint-1
*Coupling, constraint name=Constraint-1, ref node=m_Set-3, surface=s_Surf-1
*Distributing, weighting method=UNIFORM
** Constraint: Constraint-2
*Coupling, constraint name=Constraint-2, ref node=m_Set-5, surface=s_Surf-2
*Distributing, weighting method=UNIFORM
** Constraint: Constraint-3
*Coupling, constraint name=Constraint-3, ref node=m_Set-7, surface=s_Surf-3
*Distributing, weighting method=UNIFORM
** Constraint: Constraint-4
*Coupling, constraint name=Constraint-4, ref node=m_Set-8, surface=s_Surf-4
*Distributing, weighting method=UNIFORM
*End Assembly
** 
** MATERIALS
** 
*Material, name=osso
*Elastic
17000., 0.3
** ----------------------------------------------------------------
** 
** STEP: step-1
** 
*Step, name=step-1, nlgeom=NO
*Static
1., 1., 1e-05, 1.
** 
** BOUNDARY CONDITIONS
** 
** Name: encastre-osso Type: Symmetry/Antisymmetry/Encastre
*Boundary
base-osso, ENCASTRE
** 
** LOADS
** 
** Name: FH2   Type: Concentrated force
*Cload
Set-2, 1, 150.
Set-2, 2, -259.
** Name: Load-2   Type: Concentrated force
*Cload
Set-4, 1, -50.
Set-4, 2, 86.
** 
** OUTPUT REQUESTS
** 
*Restart, write, frequency=0
** 
** FIELD OUTPUT: F-Output-1
** 
*Output, field, variable=PRESELECT
** 
** HISTORY OUTPUT: H-Output-1
** 
*Output, history, variable=PRESELECT
*End Step
