*Heading
** Job name: quad-quad-1 Model name: Model-1
** Generated by: Abaqus/CAE 2022
*Preprint, echo=NO, model=NO, history=NO, contact=NO
**
** PARTS
**
*Part, name=osso
*End Part
**  
**
** ASSEMBLY
**
*Assembly, name=Assembly
**  
*Instance, name=osso-4, part=osso
*Node
      1,  -1.73076928,        -42.5
      2,  0.288461536,        -42.5
      3,   2.30769229,        -42.5
      4,   5.33653831,        -42.5
      5,   7.35576916,        -42.5
      6,        9.375,        -42.5
      7,   11.3942308,        -42.5
      8,   13.4134617,        -42.5
      9,   16.4423084,        -42.5
     10,   18.4615383,        -42.5
     11,   20.4807701,        -42.5
     12,        -3.75,        -42.5
     13,         22.5,        -42.5
     14,   22.6685085,   -40.537117
     15,    22.923172,  -37.5929604
     16,   23.0954762,  -35.6304092
     17,   23.2708187,  -33.6681252
     18,   23.5414257,  -30.7253876
     19,    23.728157,  -28.7641563
     20,   23.9209633,  -26.8035107
** ... 12274 like lines cut
*Element, type=CPS8R
   1,   984,   983,   107,   939,  4140,  4141,  4142,  4143
   2,   938,   107,   983,   982,  4144,  4141,  4145,  4146
   3,   137,  3305,  3450,  1282,  4147,  4148,  4149,  4150
   4,  1443,  1502,   136,  1339,  4151,  4152,  4153,  4154
   5,  1606,  1545,  1474,   134,  4155,  4156,  4157,  4158
   6,  1393,  1208,   121,  1343,  4159,  4160,  4161,  4162
   7,  1343,  1261,  1417,  3519,  4163,  4164,  4165,  4166
   8,  1570,  1487,   120,  1715,  4167,  4168,  4169,  4170
   9,  1670,  1693,   131,  1621,  4171,  4172,  4173,  4174
  10,  1757,  1878,   130,  1900,  4175,  4176,  4177,  4178
  11,  3185,  3355,  1737,   128,  4179,  4180,  4181,  4182
  12,  1258,  1207,   114,  1141,  4183,  4184,  4185,  4186
  13,   988,    14,   820,   989,  4187,  4188,  4189,  4190
  14,   989,   820,   821,   990,  4189,  4191,  4192,  4193
  15,   990,   991,  1168,   126,  4194,  4195,  4196,  4197
  16,    15,   991,   990,   821,  4198,  4194,  4192,  4199
  17,   993,   994,  1223,   138,  4200,  4201,  4202,  4203
  18,  1234,  1406,  3246,  3456,  4204,  4205,  4206,  4207
  19,  3236,  1669,  1620,  1713,  4208,  4209,  4210,  4211
  20,  3650,  1754,  1691,  1860,  4212,  4213,  4214,  4215
** ... 3997 like lines cut
*Nset, nset=set-osso, generate
     1,  12294,      1
*Elset, elset=set-osso, generate
    1,  4017,     1
** Section: osso-section
*Solid Section, elset=set-osso, material=osso
22.5,
*End Instance
**  
*Node
      1,  -6.01999998,   41.7099991,           0.
*Node
      2,   29.8199997,   36.8199997,           0.
*Node
      3,   7.30999994,   18.3700008,           0.
*Nset, nset=Set-2
 1,
*Nset, nset=Set-4
 2,
*Nset, nset=base-osso, instance=osso-4
    1,    2,    3,    4,    5,    6,    7,    8,    9,   10,   11,   12,   13,  805,  806,  807
  808,  809,  810,  811,  812,  813,  814,  815,  816,  817,  818, 4314, 4316, 4321, 4328, 4333
 4342, 4343, 4349, 6064, 6070, 6076, 6082, 8828, 8832, 8833, 8835, 8837, 8839, 8841, 8843, 8845
 8847, 8849, 9005, 9056, 9163
*Elset, elset=base-osso, instance=osso-4
   46,   47,   48,   50,   52,   54,   55,   56,  517,  519,  521,  522, 1372, 1373, 1374, 1375
 1376, 1377, 1378, 1379, 1380, 1381, 1382, 1458, 1492, 1571
*Nset, nset=m_Set-3
 1,
*Nset, nset=m_Set-5
 2,
*Nset, nset=m_Set-7
 3,
*Nset, nset=m_Set-8
 3,
*Nset, nset=test-points, instance=osso-4
  25,  33,  58, 100
*Elset, elset=_s_Surf-1_S1, internal, instance=osso-4
 318, 357, 358
*Elset, elset=_s_Surf-1_S3, internal, instance=osso-4
  319, 1423
*Surface, type=ELEMENT, name=s_Surf-1
_s_Surf-1_S1, S1
_s_Surf-1_S3, S3
*Elset, elset=_s_Surf-2_S4, internal, instance=osso-4
  187,  219,  220, 1414
*Elset, elset=_s_Surf-2_S2, internal, instance=osso-4
 1415, 1551
*Surface, type=ELEMENT, name=s_Surf-2
_s_Surf-2_S4, S4
_s_Surf-2_S2, S2
*Elset, elset=_s_Surf-3_S1, internal, instance=osso-4
 318, 357, 358
*Elset, elset=_s_Surf-3_S3, internal, instance=osso-4
  319, 1423
*Surface, type=ELEMENT, name=s_Surf-3
_s_Surf-3_S1, S1
_s_Surf-3_S3, S3
*Elset, elset=_s_Surf-4_S4, internal, instance=osso-4
  187,  219,  220, 1414
*Elset, elset=_s_Surf-4_S2, internal, instance=osso-4
 1415, 1551
*Surface, type=ELEMENT, name=s_Surf-4
_s_Surf-4_S4, S4
_s_Surf-4_S2, S2
** Constraint: Constraint-1
*Coupling, constraint name=Constraint-1, ref node=m_Set-3, surface=s_Surf-1
*Distributing, weighting method=UNIFORM
** Constraint: Constraint-2
*Coupling, constraint name=Constraint-2, ref node=m_Set-5, surface=s_Surf-2
*Distributing, weighting method=UNIFORM
** Constraint: Constraint-3
*Coupling, constraint name=Constraint-3, ref node=m_Set-7, surface=s_Surf-3
*Distributing, weighting method=UNIFORM
** Constraint: Constraint-4
*Coupling, constraint name=Constraint-4, ref node=m_Set-8, surface=s_Surf-4
*Distributing, weighting method=UNIFORM
*End Assembly
** 
** MATERIALS
** 
*Material, name=osso
*Elastic
17000., 0.3
** ----------------------------------------------------------------
** 
** STEP: step-1
** 
*Step, name=step-1, nlgeom=NO
*Static
1., 1., 1e-05, 1.
** 
** BOUNDARY CONDITIONS
** 
** Name: encastre-osso Type: Symmetry/Antisymmetry/Encastre
*Boundary
base-osso, ENCASTRE
** 
** LOADS
** 
** Name: FH2   Type: Concentrated force
*Cload
Set-2, 1, 150.
Set-2, 2, -259.
** Name: Load-2   Type: Concentrated force
*Cload
Set-4, 1, -50.
Set-4, 2, 86.
** 
** OUTPUT REQUESTS
** 
*Restart, write, frequency=0
** 
** FIELD OUTPUT: F-Output-1
** 
*Output, field, variable=PRESELECT
** 
** HISTORY OUTPUT: H-Output-1
** 
*Output, history, variable=PRESELECT
*End Step
