*Heading
** Job name: TRAB-NOIMP Model name: Model-1
** Generated by: Abaqus/CAE 2022
*Preprint, echo=NO, model=NO, history=NO, contact=NO
**
** PARTS
**
*Part, name=osso
*End Part
**  
**
** ASSEMBLY
**
*Assembly, name=Assembly
**  
*Instance, name=osso-4, part=osso
*Node
      1, -0.833333313,        -42.5
      2,   3.54166675,        -42.5
      3,   6.45833349,        -42.5
      4,        9.375,        -42.5
      5,    12.291667,        -42.5
      6,    16.666666,        -42.5
      7,    19.583334,        -42.5
      8,        -3.75,        -42.5
      9,         22.5,        -42.5
     10,   22.7624454,  -39.4466553
     11,   23.1632576,    -34.86726
     12,    23.439991,  -31.8151798
     13,    23.728157,  -28.7641563
     14,   24.0310211,  -25.7145596
     15,   24.5200157,   -21.143755
     16,   24.8738937,   -18.099659
     17,   25.2538605,  -15.0587225
     18,   25.6552677,  -12.0779057
     19,   26.0867462,  -9.10129356
     20,   26.5465202,  -6.12891817
** ... 5486 like lines cut
*Element, type=CPS8R
   1,  515,   83,  461,  516, 1864, 1865, 1866, 1867
   2,  667,  600,   93,  624, 1868, 1869, 1870, 1871
   3,   91,  625,  692,  732, 1872, 1873, 1874, 1875
   4,   90,  623,  672,  727, 1876, 1877, 1878, 1879
   5,  711,  653,  756,  917, 1880, 1881, 1882, 1883
   6,   88,  823,  819,  851, 1884, 1885, 1886, 1887
   7,  728,  714,  781, 1613, 1888, 1889, 1890, 1891
   8,   10,  395,  639,   86, 1892, 1893, 1894, 1895
   9,  639,  395,  396,  574, 1893, 1896, 1897, 1898
  10,   11,  575,  574,  396, 1899, 1900, 1897, 1901
  11,  397,  577,  575,   11, 1902, 1903, 1899, 1904
  12,  575,  577,  602,  102, 1903, 1905, 1906, 1907
  13,  110,  650,  694,  699, 1908, 1909, 1910, 1911
  14,  866,  831,  119,  909, 1912, 1913, 1914, 1915
  15, 1308, 1251, 1121,  126, 1916, 1917, 1918, 1919
  16, 1288, 1247, 1106,  136, 1920, 1921, 1922, 1923
  17,  145, 1063, 1107,  936, 1924, 1925, 1926, 1927
  18,  883,  154,  890,  992, 1928, 1929, 1930, 1931
  19,  660,  164,  724,  763, 1932, 1933, 1934, 1935
  20,  449,   76,  553,  549, 1936, 1937, 1938, 1939
** ... 1761 like lines cut
*Nset, nset=set-osso, generate
    1,  5506,     1
*Elset, elset=set-osso, generate
    1,  1781,     1
** Section: tab-sect
*Solid Section, elset=set-osso, material=trabecular
22.5,
*End Instance
**  
*Node
      1,  -6.01999998,   41.7099991,           0.
*Node
      2,   29.8199997,   36.8199997,           0.
*Node
      3,   7.30999994,   18.3700008,           0.
*Nset, nset=POINTS-NOO, instance=osso-4
 3013, 5484
*Nset, nset=Set-2
 1,
*Nset, nset=Set-4
 2,
*Nset, nset=base-osso, instance=osso-4
    1,    2,    3,    4,    5,    6,    7,    8,    9,  384,  385,  386,  387,  388,  389,  390
  391,  392,  393, 2019, 2024, 2028, 2033, 2041, 2043, 2966, 2974, 2985, 3999, 4000, 4003, 4005
 4007, 4009, 4011, 4089, 4114
*Elset, elset=base-osso, instance=osso-4
  42,  43,  44,  46,  48,  49, 302, 304, 307, 626, 627, 628, 629, 630, 631, 632
 675, 694
*Nset, nset=m_Set-3
 1,
*Nset, nset=m_Set-5
 2,
*Nset, nset=m_Set-7
 3,
*Nset, nset=m_Set-8
 3,
*Nset, nset=test-points, instance=osso-4
 17, 25, 43, 80
*Elset, elset=_s_Surf-1_S2, internal, instance=osso-4
 204, 653
*Elset, elset=_s_Surf-1_S4, internal, instance=osso-4
 205,
*Surface, type=ELEMENT, name=s_Surf-1
_s_Surf-1_S2, S2
_s_Surf-1_S4, S4
*Elset, elset=_s_Surf-2_S4, internal, instance=osso-4
 98,
*Elset, elset=_s_Surf-2_S2, internal, instance=osso-4
 143, 624, 644
*Surface, type=ELEMENT, name=s_Surf-2
_s_Surf-2_S4, S4
_s_Surf-2_S2, S2
*Elset, elset=_s_Surf-3_S2, internal, instance=osso-4
 204, 653
*Elset, elset=_s_Surf-3_S4, internal, instance=osso-4
 205,
*Surface, type=ELEMENT, name=s_Surf-3
_s_Surf-3_S2, S2
_s_Surf-3_S4, S4
*Elset, elset=_s_Surf-4_S4, internal, instance=osso-4
 98,
*Elset, elset=_s_Surf-4_S2, internal, instance=osso-4
 143, 624, 644
*Surface, type=ELEMENT, name=s_Surf-4
_s_Surf-4_S4, S4
_s_Surf-4_S2, S2
** Constraint: Constraint-1
*Coupling, constraint name=Constraint-1, ref node=m_Set-3, surface=s_Surf-1
*Distributing, weighting method=UNIFORM
** Constraint: Constraint-2
*Coupling, constraint name=Constraint-2, ref node=m_Set-5, surface=s_Surf-2
*Distributing, weighting method=UNIFORM
** Constraint: Constraint-3
*Coupling, constraint name=Constraint-3, ref node=m_Set-7, surface=s_Surf-3
*Distributing, weighting method=UNIFORM
** Constraint: Constraint-4
*Coupling, constraint name=Constraint-4, ref node=m_Set-8, surface=s_Surf-4
*Distributing, weighting method=UNIFORM
*End Assembly
** 
** MATERIALS
** 
*Material, name=osso
*Elastic
17000., 0.3
*Material, name=trabecular
*Elastic
1380., 0.3
** ----------------------------------------------------------------
** 
** STEP: step-1
** 
*Step, name=step-1, nlgeom=NO
*Static
1., 1., 1e-05, 1.
** 
** BOUNDARY CONDITIONS
** 
** Name: encastre-osso Type: Symmetry/Antisymmetry/Encastre
*Boundary
base-osso, ENCASTRE
** 
** LOADS
** 
** Name: FH2   Type: Concentrated force
*Cload
Set-2, 1, 150.
Set-2, 2, -259.
** Name: Load-2   Type: Concentrated force
*Cload
Set-4, 1, -50.
Set-4, 2, 86.
** 
** OUTPUT REQUESTS
** 
*Restart, write, frequency=0
** 
** FIELD OUTPUT: F-Output-1
** 
*Output, field, variable=PRESELECT
** 
** HISTORY OUTPUT: H-Output-1
** 
*Output, history, variable=PRESELECT
*End Step
