1

   Abaqus 2022                                  Date 23-out-2024   Time 15:33:20
   For use by INSTITUTO SUPERIOR TECNICO under license from Dassault Systemes or its subsidiary.



                         The Abaqus Software is a product of:

                           Dassault Systemes SIMULIA Corp.
                           1301 Atwood Avenue, Suite 101W
                              Johnston, RI 02919, USA
 


                   The Abaqus Software is available only under license
                   from Dassault Systemes or its subsidiary and may be
                   used or reproduced only in accordance with the terms
                   of such license.
 
                          On machine MORGAN 
                          you are authorized to run
                          Abaqus/Standard until 31-Mar-2025

                          Your site id is: 200000000000902 


 
                    For assistance or any other information you may
                    obtain contact information for your local office
                    from the world wide web at:

                      http://www.3ds.com/products/simulia/locations/

 
                * * * * * * * * * * * * * * * * * * * * * * * * * * * * * * 
                *                                                         * 
                *                   *****************                     * 
                *                   *  N O T I C E  *                     * 
                *                   *****************                     * 
                *                                                         * 
                *                                                         * 
                *                       Abaqus 2022                       * 
                *                                                         * 
                *          BUILD ID: 2021_09_15-18.57.30 176069           * 
                *                                                         * 
                *                                                         * 
                *  Please make sure you are using                         * 
                *  release Abaqus 2022 manuals                            * 
                *  plus the notes accompanying this release.              * 
                *                                                         * 
                *                                                         * 
                *                                                         * 
                *                                                         * 
                *                                                         * 
                *   This program may not be used for commercial purposes  * 
                *           without payment of a commercial fee.          * 
                *                                                         * 
                * * * * * * * * * * * * * * * * * * * * * * * * * * * * * * 


 



     PROCESSING PART, INSTANCE, AND ASSEMBLY INFORMATION
   *******************************************************


     END PROCESSING PART, INSTANCE, AND ASSEMBLY INFORMATION
   ***********************************************************




     OPTIONS BEING PROCESSED
   ***************************


  *Heading
  *Node
  *Element, type=CPS8R
  *Nset, nset=ASSEMBLY_OSSO-4_SET-OSSO
  *Elset, elset=ASSEMBLY_OSSO-4_SET-OSSO
  *Node
  *Nset, nset=ASSEMBLY_BASE-OSSO
  *Nset, nset=ASSEMBLY_M_SET-3
  *Nset, nset=ASSEMBLY_M_SET-5
  *Nset, nset=ASSEMBLY_M_SET-7
  *Nset, nset=ASSEMBLY_M_SET-8
  *Nset, nset=ASSEMBLY_SET-2
  *Nset, nset=ASSEMBLY_SET-4
  *Nset, nset=ASSEMBLY_TEST-POINTS
  *Elset, elset=ASSEMBLY_BASE-OSSO
  *Elset, elset=ASSEMBLY__S_SURF-1_S1
  *Elset, elset=ASSEMBLY__S_SURF-2_S3
  *Elset, elset=ASSEMBLY__S_SURF-3_S1
  *Elset, elset=ASSEMBLY__S_SURF-4_S3
  *material, name=OSSO
  *elastic
  *solidsection, elset=ASSEMBLY_OSSO-4_SET-OSSO, material=OSSO
  *solidsection, elset=ASSEMBLY_OSSO-4_SET-OSSO, material=OSSO

 ***WARNING: FOR TWO-DIMENSIONAL MODELS, IF A NON-UNITY THICKNESS IS SPECIFIED 
             FOR TWO-DIMENSIONAL SOLID ELEMENTS AND THESE ELEMENTS ARE INVOLVED 
             IN AN INTERACTION SUCH AS CONTACT, THE SAME THICKNESS SHOULD BE 
             SPECIFIED FOR THE OUT-OF-PLANE THICKNESS OF THE CORRESPONDING 
             SURFACE UNDER *SURFACE INTERACTION.
  *surface, type=ELEMENT, name=ASSEMBLY_S_SURF-1
  *surface, type=ELEMENT, name=ASSEMBLY_S_SURF-2
  *surface, type=ELEMENT, name=ASSEMBLY_S_SURF-3
  *surface, type=ELEMENT, name=ASSEMBLY_S_SURF-4
  *surface, type=ELEMENT, name=ASSEMBLY_S_SURF-1
  *surface, type=ELEMENT, name=ASSEMBLY_S_SURF-2
  *surface, type=ELEMENT, name=ASSEMBLY_S_SURF-3
  *surface, type=ELEMENT, name=ASSEMBLY_S_SURF-4
  *coupling, constraintname=ASSEMBLY_CONSTRAINT-1, refnode=ASSEMBLY_M_SET-3, surface=ASSEMBLY_S_SURF-1
  *coupling, constraintname=ASSEMBLY_CONSTRAINT-2, refnode=ASSEMBLY_M_SET-5, surface=ASSEMBLY_S_SURF-2
  *coupling, constraintname=ASSEMBLY_CONSTRAINT-3, refnode=ASSEMBLY_M_SET-7, surface=ASSEMBLY_S_SURF-3
  *coupling, constraintname=ASSEMBLY_CONSTRAINT-4, refnode=ASSEMBLY_M_SET-8, surface=ASSEMBLY_S_SURF-4
  *coupling, constraintname=ASSEMBLY_CONSTRAINT-1, refnode=ASSEMBLY_M_SET-3, surface=ASSEMBLY_S_SURF-1
  *coupling, constraintname=ASSEMBLY_CONSTRAINT-2, refnode=ASSEMBLY_M_SET-5, surface=ASSEMBLY_S_SURF-2
  *coupling, constraintname=ASSEMBLY_CONSTRAINT-3, refnode=ASSEMBLY_M_SET-7, surface=ASSEMBLY_S_SURF-3
  *coupling, constraintname=ASSEMBLY_CONSTRAINT-4, refnode=ASSEMBLY_M_SET-8, surface=ASSEMBLY_S_SURF-4
  *coupling, constraintname=ASSEMBLY_CONSTRAINT-1, refnode=ASSEMBLY_M_SET-3, surface=ASSEMBLY_S_SURF-1
  *coupling, constraintname=ASSEMBLY_CONSTRAINT-2, refnode=ASSEMBLY_M_SET-5, surface=ASSEMBLY_S_SURF-2
  *coupling, constraintname=ASSEMBLY_CONSTRAINT-3, refnode=ASSEMBLY_M_SET-7, surface=ASSEMBLY_S_SURF-3
  *coupling, constraintname=ASSEMBLY_CONSTRAINT-4, refnode=ASSEMBLY_M_SET-8, surface=ASSEMBLY_S_SURF-4
  *coupling, constraintname=ASSEMBLY_CONSTRAINT-1, refnode=ASSEMBLY_M_SET-3, surface=ASSEMBLY_S_SURF-1
  *distributing, weightingmethod=UNIFORM

 ***WARNING: A 2D DISTRIBUTED COUPLING DEFINITION WITH ROTATIONAL 
             COUPLING=STRUCTURAL WILL IGNORE THE STRUCTURAL ROTATIONAL COUPLING 
             AS ALL OF NODES IN THE CLOUD DO NOT HAVE THE ROTATIONAL DEGREE OF 
             FREEDOM 6 ACTIVE.
  *coupling, constraintname=ASSEMBLY_CONSTRAINT-2, refnode=ASSEMBLY_M_SET-5, surface=ASSEMBLY_S_SURF-2
  *distributing, weightingmethod=UNIFORM

 ***WARNING: A 2D DISTRIBUTED COUPLING DEFINITION WITH ROTATIONAL 
             COUPLING=STRUCTURAL WILL IGNORE THE STRUCTURAL ROTATIONAL COUPLING 
             AS ALL OF NODES IN THE CLOUD DO NOT HAVE THE ROTATIONAL DEGREE OF 
             FREEDOM 6 ACTIVE.
  *coupling, constraintname=ASSEMBLY_CONSTRAINT-3, refnode=ASSEMBLY_M_SET-7, surface=ASSEMBLY_S_SURF-3
  *distributing, weightingmethod=UNIFORM

 ***WARNING: A 2D DISTRIBUTED COUPLING DEFINITION WITH ROTATIONAL 
             COUPLING=STRUCTURAL WILL IGNORE THE STRUCTURAL ROTATIONAL COUPLING 
             AS ALL OF NODES IN THE CLOUD DO NOT HAVE THE ROTATIONAL DEGREE OF 
             FREEDOM 6 ACTIVE.
  *coupling, constraintname=ASSEMBLY_CONSTRAINT-4, refnode=ASSEMBLY_M_SET-8, surface=ASSEMBLY_S_SURF-4
  *distributing, weightingmethod=UNIFORM

 ***WARNING: A 2D DISTRIBUTED COUPLING DEFINITION WITH ROTATIONAL 
             COUPLING=STRUCTURAL WILL IGNORE THE STRUCTURAL ROTATIONAL COUPLING 
             AS ALL OF NODES IN THE CLOUD DO NOT HAVE THE ROTATIONAL DEGREE OF 
             FREEDOM 6 ACTIVE.
  *boundary
  *boundary
  *surface, type=ELEMENT, name=ASSEMBLY_S_SURF-1
  *surface, type=ELEMENT, name=ASSEMBLY_S_SURF-2
  *surface, type=ELEMENT, name=ASSEMBLY_S_SURF-3
  *surface, type=ELEMENT, name=ASSEMBLY_S_SURF-4
  *output, field, variable=PRESELECT
  *output, history, variable=PRESELECT
  *output, field, variable=PRESELECT
  *output, history, variable=PRESELECT
  *output, field, variable=PRESELECT
  *output, history, variable=PRESELECT
  *Step, name=step-1, nlgeom=NO
  *output, field, variable=PRESELECT
  *output, history, variable=PRESELECT
  *Step, name=step-1, nlgeom=NO
  *Step, name=step-1, nlgeom=NO
  *static
  *boundary
  *output, field, variable=PRESELECT
  *output, history, variable=PRESELECT
  *endstep
  *Step, name=step-1, nlgeom=NO
  *static
  *boundary
  *cload
  *cload
  *endstep



                            P R O B L E M   S I Z E


          NUMBER OF ELEMENTS IS                                    74
          NUMBER OF NODES IS                                      248
          NUMBER OF NODES DEFINED BY THE USER                     244
          NUMBER OF INTERNAL NODES GENERATED BY THE PROGRAM         4
          TOTAL NUMBER OF VARIABLES IN THE MODEL                  503
          (DEGREES OF FREEDOM PLUS MAX NO. OF ANY LAGRANGE MULTIPLIER
           VARIABLES. INCLUDE *PRINT,SOLVE=YES TO GET THE ACTUAL NUMBER.)



                              END OF USER INPUT PROCESSING



     JOB TIME SUMMARY
       USER TIME (SEC)      =  0.10000    
       SYSTEM TIME (SEC)    =  0.10000    
       TOTAL CPU TIME (SEC) =  0.20000    
       WALLCLOCK TIME (SEC) =          0
1

   Abaqus 2022                                  Date 23-out-2024   Time 15:33:27
   For use by INSTITUTO SUPERIOR TECNICO under license from Dassault Systemes or its subsidiary.

                                                                                               STEP    1  INCREMENT    1
                                                                                          TIME COMPLETED IN THIS STEP   0.00    


                        S T E P       1     S T A T I C   A N A L Y S I S


                                                                                          

     AUTOMATIC TIME CONTROL WITH -
          A SUGGESTED INITIAL TIME INCREMENT OF                 1.00    
          AND A TOTAL TIME PERIOD OF                            1.00    
          THE MINIMUM TIME INCREMENT ALLOWED IS                1.000E-05
          THE MAXIMUM TIME INCREMENT ALLOWED IS                 1.00    

     LINEAR EQUATION SOLVER TYPE         DIRECT SPARSE
  
                   M E M O R Y   E S T I M A T E
  
 PROCESS      FLOATING PT       MINIMUM MEMORY        MEMORY TO
              OPERATIONS           REQUIRED          MINIMIZE I/O
             PER ITERATION           (MB)               (MB)
  
     1          7.29E+05               17                 24
  
 NOTE:
      (1) SINCE ABAQUS DOES NOT PRE-ALLOCATE MEMORY AND ONLY ALLOCATES MEMORY AS NEEDED DURING THE ANALYSIS,
          THE MEMORY REQUIREMENT PRINTED HERE CAN ONLY BE VIEWED AS A GENERAL GUIDELINE BASED ON THE BEST
          KNOWLEDGE AVAILABLE AT THE BEGINNING OF A STEP BEFORE THE SOLUTION PROCESS HAS BEGUN.
      (2) THE ESTIMATE IS NORMALLY UPDATED AT THE BEGINNING OF EVERY STEP. IT IS THE MAXIMUM VALUE OF THE
          ESTIMATE FROM THE CURRENT STEP TO THE LAST STEP OF THE ANALYSIS, WITH UNSYMMETRIC SOLUTION TAKEN
          INTO ACCOUNT IF APPLICABLE. 
      (3) SINCE THE ESTIMATE IS BASED ON THE ACTIVE DEGREES OF FREEDOM IN THE FIRST ITERATION OF THE 
          CURRENT STEP, THE MEMORY ESTIMATE MIGHT BE SIGNIFICANTLY DIFFERENT THAN ACTUAL USAGE FOR 
          PROBLEMS WITH SUBSTANTIAL CHANGES IN ACTIVE DEGREES OF FREEDOM BETWEEN STEPS (OR EVEN WITHIN
          THE SAME STEP). EXAMPLES ARE: PROBLEMS WITH SIGNIFICANT CONTACT CHANGES, PROBLEMS WITH MODEL
          CHANGE, PROBLEMS WITH BOTH STATIC STEP AND STEADY STATE DYNAMIC PROCEDURES WHERE ACOUSTIC 
          ELEMENTS WILL ONLY BE ACTIVATED IN THE STEADY STATE DYNAMIC STEPS.
      (4) FOR MULTI-PROCESS EXECUTION, THE ESTIMATED VALUE OF FLOATING POINT OPERATIONS FOR EACH PROCESS
          IS BASED ON AN INITIAL SCHEDULING OF OPERATIONS AND MIGHT NOT REFLECT THE ACTUAL FLOATING 
          POINT OPERATIONS COMPLETED ON EACH PROCESS. OPERATIONS ARE DYNAMICALLY BALANCED DURING EXECUTION, 
          SO THE ACTUAL BALANCE OF OPERATIONS BETWEEN PROCESSES IS EXPECTED TO BE BETTER THAN THE ESTIMATE
          PRINTED HERE.
      (5) THE UPPER LIMIT OF MEMORY THAT CAN BE ALLOCATED BY ABAQUS WILL IN GENERAL DEPEND ON THE VALUE OF
          THE "MEMORY" PARAMETER AND THE AMOUNT OF PHYSICAL MEMORY AVAILABLE ON THE MACHINE. PLEASE SEE
          THE "ABAQUS ANALYSIS USER'S MANUAL" FOR MORE DETAILS. THE ACTUAL USAGE OF MEMORY AND OF DISK
          SPACE FOR SCRATCH DATA WILL DEPEND ON THIS UPPER LIMIT AS WELL AS THE MEMORY REQUIRED TO MINIMIZE
          I/O. IF THE MEMORY UPPER LIMIT IS GREATER THAN THE MEMORY REQUIRED TO MINIMIZE I/O, THEN THE ACTUAL
          MEMORY USAGE WILL BE CLOSE TO THE ESTIMATED "MEMORY TO MINIMIZE I/O" VALUE, AND THE SCRATCH DISK
          USAGE WILL BE CLOSE-TO-ZERO; OTHERWISE, THE ACTUAL MEMORY USED WILL BE CLOSE TO THE PREVIOUSLY
          MENTIONED MEMORY LIMIT, AND THE SCRATCH DISK USAGE WILL BE ROUGHLY PROPORTIONAL TO THE DIFFERENCE
          BETWEEN THE ESTIMATED "MEMORY TO MINIMIZE I/O" AND THE MEMORY UPPER LIMIT. HOWEVER ACCURATE
          ESTIMATE OF THE SCRATCH DISK SPACE IS NOT POSSIBLE.
      (6) USING "*RESTART, WRITE" CAN GENERATE A LARGE AMOUNT OF DATA WRITTEN IN THE WORK DIRECTORY.


          THE ANALYSIS HAS BEEN COMPLETED



                              ANALYSIS COMPLETE
                              WITH      5 WARNING MESSAGES ON THE DAT FILE



     JOB TIME SUMMARY
       USER TIME (SEC)      =   0.0000    
       SYSTEM TIME (SEC)    =   0.0000    
       TOTAL CPU TIME (SEC) =   0.0000    
       WALLCLOCK TIME (SEC) =          1
