*Heading
** Job name: quad-lin-3 Model name: Model-1
** Generated by: Abaqus/CAE 2022
*Preprint, echo=NO, model=NO, history=NO, contact=NO
**
** PARTS
**
*Part, name=osso
*End Part
**  
**
** ASSEMBLY
**
*Assembly, name=Assembly
**  
*Instance, name=osso-4, part=osso
*Node
      1,        -3.75,        -42.5
      2,         22.5,        -42.5
      3,   25.2538605,  -15.0587225
      4,   28.9005451,   7.19905329
      5,   31.9538689,   22.3731251
      6,   33.1014061,    28.454834
      7,    33.097538,   31.5432739
      8,   32.1227226,   34.4562111
      9,    30.079855,   36.6239319
     10,   27.5368309,   38.1999474
     11,   19.6730137,   41.8460274
     12,   14.2394934,    43.807106
     13,   11.2625771,   44.5297966
     14,   5.16473341,   44.9634094
     15,   2.12391877,   44.5990448
     16,   -3.7290206,   42.8246994
     17,  -8.00099087,   40.5162544
     18,  -12.5798674,   36.6379318
     19,  -14.4942932,   34.3211899
     20,  -17.3975849,   29.0722637
** ... 526 like lines cut
*Element, type=CPS4R
  1,  38, 103, 129,  37
  2,  79, 110, 109,  78
  3,  90,  91,  51,  52
  4, 343, 280, 269, 307
  5,  83,  31,  84,  86
  6, 116,  74,  75, 169
  7,  83,  85,  30,  31
  8,  96,  95,  56,  57
  9,  29,  30,  85, 176
 10, 101,  99, 120, 483
 11, 151,  14,  15, 153
 12, 267, 223, 213, 499
 13,  14, 151, 150,  66
 14,  67, 154, 153,  15
 15, 178,  17,  69, 145
 16, 143,  18,  19, 141
 17, 140,  70,  20, 144
 18, 144,  20,  21, 146
 19, 189, 186, 147, 148
 20,  22, 148, 147,  71
** ... 484 like lines cut
*Nset, nset=set-osso, generate
   1,  546,    1
*Elset, elset=set-osso, generate
   1,  504,    1
** Section: osso-section
*Solid Section, elset=set-osso, material=osso
22.5,
*End Instance
**  
*Node
      1,  -6.01999998,   41.7099991,           0.
*Node
      2,   29.8199997,   36.8199997,           0.
*Node
      3,   7.30999994,   18.3700008,           0.
*Nset, nset=Set-2
 1,
*Nset, nset=Set-4
 2,
*Nset, nset=base-osso, instance=osso-4
  1,  2, 35, 36, 37, 38, 39, 40, 41, 42
*Elset, elset=base-osso, instance=osso-4
  1, 31, 34, 36, 37, 68, 69, 71, 95
*Nset, nset=m_Set-3
 1,
*Nset, nset=m_Set-5
 2,
*Nset, nset=m_Set-7
 3,
*Nset, nset=m_Set-8
 3,
*Nset, nset=test-points, instance=osso-4
  3,  4, 12, 34
*Elset, elset=_s_Surf-1_S4, internal, instance=osso-4
 79,
*Elset, elset=_s_Surf-1_S2, internal, instance=osso-4
 80,
*Surface, type=ELEMENT, name=s_Surf-1
_s_Surf-1_S4, S4
_s_Surf-1_S2, S2
*Elset, elset=_s_Surf-2_S2, internal, instance=osso-4
 27, 28
*Surface, type=ELEMENT, name=s_Surf-2
_s_Surf-2_S2, S2
*Elset, elset=_s_Surf-3_S4, internal, instance=osso-4
 79,
*Elset, elset=_s_Surf-3_S2, internal, instance=osso-4
 80,
*Surface, type=ELEMENT, name=s_Surf-3
_s_Surf-3_S4, S4
_s_Surf-3_S2, S2
*Elset, elset=_s_Surf-4_S2, internal, instance=osso-4
 27, 28
*Surface, type=ELEMENT, name=s_Surf-4
_s_Surf-4_S2, S2
** Constraint: Constraint-1
*Coupling, constraint name=Constraint-1, ref node=m_Set-3, surface=s_Surf-1
*Distributing, weighting method=UNIFORM
** Constraint: Constraint-2
*Coupling, constraint name=Constraint-2, ref node=m_Set-5, surface=s_Surf-2
*Distributing, weighting method=UNIFORM
** Constraint: Constraint-3
*Coupling, constraint name=Constraint-3, ref node=m_Set-7, surface=s_Surf-3
*Distributing, weighting method=UNIFORM
** Constraint: Constraint-4
*Coupling, constraint name=Constraint-4, ref node=m_Set-8, surface=s_Surf-4
*Distributing, weighting method=UNIFORM
*End Assembly
** 
** MATERIALS
** 
*Material, name=osso
*Elastic
17000., 0.3
** ----------------------------------------------------------------
** 
** STEP: step-1
** 
*Step, name=step-1, nlgeom=NO
*Static
1., 1., 1e-05, 1.
** 
** BOUNDARY CONDITIONS
** 
** Name: encastre-osso Type: Symmetry/Antisymmetry/Encastre
*Boundary
base-osso, ENCASTRE
** 
** LOADS
** 
** Name: FH2   Type: Concentrated force
*Cload
Set-2, 1, 150.
Set-2, 2, -259.
** Name: Load-2   Type: Concentrated force
*Cload
Set-4, 1, -50.
Set-4, 2, 86.
** 
** OUTPUT REQUESTS
** 
*Restart, write, frequency=0
** 
** FIELD OUTPUT: F-Output-1
** 
*Output, field, variable=PRESELECT
** 
** HISTORY OUTPUT: H-Output-1
** 
*Output, history, variable=PRESELECT
*End Step
