*Heading
** Job name: tri-quad-05 Model name: Model-1
** Generated by: Abaqus/CAE 2022
*Preprint, echo=NO, model=NO, history=NO, contact=NO
**
** PARTS
**
*Part, name=osso
*End Part
**  
**
** ASSEMBLY
**
*Assembly, name=Assembly
**  
*Instance, name=osso-4, part=osso
*Node
      1,  -2.75943398,        -42.5
      2,  -1.76886797,        -42.5
      3, -0.283018857,        -42.5
      4,  0.707547188,        -42.5
      5,    1.6981132,        -42.5
      6,   2.68867922,        -42.5
      7,   3.67924523,        -42.5
      8,   5.16509438,        -42.5
      9,   6.15566015,        -42.5
     10,   7.14622641,        -42.5
     11,   8.13679218,        -42.5
     12,   9.12735844,        -42.5
     13,   10.6132078,        -42.5
     14,   11.6037731,        -42.5
     15,   12.5943394,        -42.5
     16,   13.5849056,        -42.5
     17,    15.070755,        -42.5
     18,   16.0613213,        -42.5
     19,   17.0518875,        -42.5
     20,   18.0424538,        -42.5
** ... 53895 like lines cut
*Element, type=CPS6M
    1,   225,  3323,   256, 13601, 13602, 13603
    2,  3879,  3654,   256, 13604, 13605, 13606
    3,  3932,   255,  3753, 13607, 13608, 13609
    4, 11585,  3960,  4153, 13610, 13611, 13612
    5,  4108,  3983,  3824, 13613, 13614, 13615
    6,  4241,  3822,  4107, 13616, 13617, 13618
    7,  4131,  3982,  3865, 13619, 13620, 13621
    8,  3926,   250,  3757, 13622, 13623, 13624
    9,  4150,  4045,   274, 13625, 13626, 13627
   10,  4420,  4360,   248, 13628, 13629, 13630
   11,  4787,   272,  4780, 13631, 13632, 13633
   12,  8257,   271,  5186, 13634, 13635, 13636
   13, 12077, 11606,   244, 13637, 13638, 13639
   14,  5078,  4912,  4758, 13640, 13641, 13642
   15,  4247,  3828,  4113, 13643, 13644, 13645
   16,  4165,  3987,  3958, 13646, 13647, 13648
   17,  4294,  4270,   241, 13649, 13650, 13651
   18,  4265,  4159,  4054, 13652, 13653, 13654
   19,  3943,   239,  3750, 13655, 13656, 13657
   20,  3935,   238,  3746, 13658, 13659, 13660
** ... 26696 like lines cut
*Nset, nset=set-osso, generate
     1,  53915,      1
*Elset, elset=set-osso, generate
     1,  26716,      1
** Section: osso-section
*Solid Section, elset=set-osso, material=osso
22.5,
*End Instance
**  
*Node
      1,  -6.01999998,   41.7099991,           0.
*Node
      2,   29.8199997,   36.8199997,           0.
*Node
      3,   7.30999994,   18.3700008,           0.
*Nset, nset=Set-2
 1,
*Nset, nset=Set-4
 2,
*Nset, nset=base-osso, instance=osso-4
     1,     2,     3,     4,     5,     6,     7,     8,     9,    10,    11,    12,    13,    14,    15,    16
    17,    18,    19,    20,    21,    22,    23,    24,    25,  3067,  3068,  3069,  3070,  3071,  3072,  3073
  3074,  3075,  3076,  3077,  3078,  3079,  3080,  3081,  3082,  3083,  3084,  3085,  3086,  3087,  3088,  3089
  3090,  3091,  3092,  3093,  3094,  3095, 13942, 14004, 17941, 17944, 17955, 17961, 30102, 30104, 30106, 30115
 30134, 30137, 30145, 30150, 30152, 30154, 30156, 30544, 30612, 30615, 30620, 30624, 30628, 30633, 30635, 30638
 30641, 30642, 30645, 30648, 30649, 30651, 30662, 30682, 30684, 30690, 30693, 30696, 30701, 30706, 30709, 30710
 30716, 30717, 30722, 30724, 30725, 30739, 30740, 30742, 30745, 30748, 30749
*Elset, elset=base-osso, instance=osso-4
  116,  137, 1495, 1496, 1500, 1502, 5939, 5940, 5941, 5947, 5954, 5955, 5958, 5961, 5962, 5963
 5964, 6162, 6213, 6214, 6216, 6218, 6220, 6222, 6223, 6224, 6225, 6226, 6228, 6230, 6231, 6233
 6245, 6260, 6262, 6266, 6268, 6270, 6272, 6274, 6276, 6277, 6279, 6280, 6282, 6284, 6285, 6298
 6299, 6301, 6303, 6306, 6307
*Nset, nset=m_Set-3
 1,
*Nset, nset=m_Set-5
 2,
*Nset, nset=m_Set-7
 3,
*Nset, nset=m_Set-8
 3,
*Nset, nset=test-points, instance=osso-4
  51,  67, 114, 210
*Elset, elset=_s_Surf-1_S2, internal, instance=osso-4
 4800, 6077, 6079, 6080, 6195, 6201, 6204, 6206
*Elset, elset=_s_Surf-1_S1, internal, instance=osso-4
 6076, 6078
*Surface, type=ELEMENT, name=s_Surf-1
_s_Surf-1_S2, S2
_s_Surf-1_S1, S1
*Elset, elset=_s_Surf-2_S3, internal, instance=osso-4
 611,
*Elset, elset=_s_Surf-2_S2, internal, instance=osso-4
  613, 6044, 6046, 6047, 6629, 6633, 6637, 6641, 6645
*Elset, elset=_s_Surf-2_S1, internal, instance=osso-4
 6043, 6045
*Surface, type=ELEMENT, name=s_Surf-2
_s_Surf-2_S3, S3
_s_Surf-2_S2, S2
_s_Surf-2_S1, S1
*Elset, elset=_s_Surf-3_S2, internal, instance=osso-4
 4800, 6077, 6079, 6080, 6195, 6201, 6204, 6206
*Elset, elset=_s_Surf-3_S1, internal, instance=osso-4
 6076, 6078
*Surface, type=ELEMENT, name=s_Surf-3
_s_Surf-3_S2, S2
_s_Surf-3_S1, S1
*Elset, elset=_s_Surf-4_S3, internal, instance=osso-4
 611,
*Elset, elset=_s_Surf-4_S2, internal, instance=osso-4
  613, 6044, 6046, 6047, 6629, 6633, 6637, 6641, 6645
*Elset, elset=_s_Surf-4_S1, internal, instance=osso-4
 6043, 6045
*Surface, type=ELEMENT, name=s_Surf-4
_s_Surf-4_S3, S3
_s_Surf-4_S2, S2
_s_Surf-4_S1, S1
** Constraint: Constraint-1
*Coupling, constraint name=Constraint-1, ref node=m_Set-3, surface=s_Surf-1
*Distributing, weighting method=UNIFORM
** Constraint: Constraint-2
*Coupling, constraint name=Constraint-2, ref node=m_Set-5, surface=s_Surf-2
*Distributing, weighting method=UNIFORM
** Constraint: Constraint-3
*Coupling, constraint name=Constraint-3, ref node=m_Set-7, surface=s_Surf-3
*Distributing, weighting method=UNIFORM
** Constraint: Constraint-4
*Coupling, constraint name=Constraint-4, ref node=m_Set-8, surface=s_Surf-4
*Distributing, weighting method=UNIFORM
*End Assembly
** 
** MATERIALS
** 
*Material, name=osso
*Elastic
17000., 0.3
** ----------------------------------------------------------------
** 
** STEP: step-1
** 
*Step, name=step-1, nlgeom=NO
*Static
1., 1., 1e-05, 1.
** 
** BOUNDARY CONDITIONS
** 
** Name: encastre-osso Type: Symmetry/Antisymmetry/Encastre
*Boundary
base-osso, ENCASTRE
** 
** LOADS
** 
** Name: FH2   Type: Concentrated force
*Cload
Set-2, 1, 150.
Set-2, 2, -259.
** Name: Load-2   Type: Concentrated force
*Cload
Set-4, 1, -50.
Set-4, 2, 86.
** 
** OUTPUT REQUESTS
** 
*Restart, write, frequency=0
** 
** FIELD OUTPUT: F-Output-1
** 
*Output, field, variable=PRESELECT
** 
** HISTORY OUTPUT: H-Output-1
** 
*Output, history, variable=PRESELECT
*End Step
