*Heading
** Job name: high-stress Model name: Model-1
** Generated by: Abaqus/CAE 2022
*Preprint, echo=NO, model=NO, history=NO, contact=NO
**
** PARTS
**
*Part, name=implante-2-Copy4
*End Part
**  
*Part, name=osso-divided-cut
*End Part
**  
**
** ASSEMBLY
**
*Assembly, name=Assembly
**  
*Instance, name=implante-2-Copy4-1, part=implante-2-Copy4
   13.496435,     -5.70859,           0.
*Node
      1,  -1.64397871,    42.175106
      2,  -25.1849537,   19.3163319
      3,   -22.618803,   16.6735973
      4,  -20.7349701,   18.4677505
      5,  -22.3520794,   20.1656876
      6,  -18.3190575,   24.0067215
      7,  -16.7019482,   22.3087826
      8,   1.35374999,   3.35059237
      9,   13.5375004,   14.9543428
     10,  -4.51819849,   33.9125328
     11,  -6.13530731,   35.6104736
     12,   -1.9432826,   39.6029396
     13, -0.326174021,   37.9049988
     14,   1.14336121,   39.3045807
     15,   4.69218206,   48.3276482
     16,  -15.2367706,   51.9594498
     17,  -20.6051712,   50.0655746
     18,  -31.1362495,   13.5375004
     19,   -2.6674993,   41.1812439
     20,  -3.69102001,   40.1873856
** ... 2236 like lines cut
*Element, type=CPS8R
  1,  361,   40,    2,   41,  775,  776,  777,  778
  2,    5,   40,  361,   43,  779,  775,  780,  781
  3,   44,   45,   38,   39,  782,  783,  784,  785
  4,    6,   47,  151,  206,  786,  787,  788,  789
  5,   22,   91,   92,   21,  790,  791,  792,  793
  6,  154,  360,   12,   94,  794,  795,  796,  797
  7,  154,   94,   13,  152,  797,  798,  799,  800
  8,   95,   96,  154,  152,  801,  802,  800,  803
  9,  158,   25,   26,  199,  804,  805,  806,  807
 10,  156,   31,   32,  157,  808,  809,  810,  811
 11,  159,   30,   31,  156,  812,  813,  808,  814
 12,  151,  153,  198,  163,  815,  816,  817,  818
 13,   39,   40,    5,   44,  819,  779,  820,  785
 14,   45,   46,   37,   38,  821,  822,  823,  783
 15,   35,   36,    6,  206,  824,  825,  789,  826
 16,  362,  206,  151,  163,  827,  788,  818,  828
 17,  240,  167,  176,  216,  829,  830,  831,  832
 18,  153,  151,   47,    7,  815,  787,  833,  834
 19,   49,   50,  178,  176,  835,  836,  837,  838
 20,  242,  205,  241,  343,  839,  840,  841,  842
** ... 689 like lines cut
*Nset, nset=Set-1
    1,    2,   15,   16,   17,   18,   19,   20,   21,   22,   23,   24,   25,   26,   27,   28
   29,   30,   31,   32,   33,   34,   35,   36,   37,   38,   39,   40,   97,   98,   99,  100
  101,  102,  103,  104,  105,  106,  107,  108,  109,  110,  111,  112,  113,  114,  115,  116
  117,  118,  119,  120,  121,  122,  123,  124,  125,  126,  127,  128,  129,  130,  131,  132
  133,  134,  135,  136,  137,  138,  139,  140,  141,  142,  143,  144,  145,  146,  147,  148
  149,  150,  371,  372,  373,  374,  375,  376,  377,  378,  379,  380,  381,  382,  383,  384
  385,  386,  387,  388,  389,  390,  391,  392,  393,  394,  395,  396,  397,  398,  399,  400
  401,  402,  403,  404,  405,  406,  407,  408,  409,  410,  411,  412,  413,  414,  415,  416
  417,  418,  419,  420,  421,  422,  423,  424,  425,  426,  427,  428,  429,  430,  431,  432
  433,  434,  435,  436,  437,  438,  439,  440,  441,  442,  443,  444,  445,  446,  447,  448
  449,  450,  451,  452,  453,  454,  455,  456,  457,  458,  459,  460,  461,  462,  463,  464
  465,  466,  467,  468,  469,  470,  471,  472,  473,  474,  475,  476,  477,  478,  479,  480
  481,  482,  483,  484,  485,  486,  487,  488,  489,  490,  491,  492,  493,  494,  495,  496
  497,  498,  499,  500,  501,  502,  503,  504,  505,  506,  507,  508,  509,  510,  511,  512
  513,  514,  515,  516,  517,  518,  519,  520,  521,  522,  523,  524,  525,  526,  527,  528
  529,  530,  531,  532,  533,  534,  535,  536,  537,  538,  539,  540,  541,  542,  543,  544
  545,  546,  547,  548,  549,  550,  551,  552,  553,  554,  555,  556,  557,  558,  559,  560
  561,  562,  563,  564,  565,  566,  567,  568,  569,  570,  571,  572,  573,  574,  575,  576
  577,  578,  579,  580,  581,  582,  583,  584,  585,  586,  587,  588,  589,  590,  591,  592
  593,  594,  595,  596,  597,  598,  599,  600,  601,  602,  603,  604,  605,  606,  607,  608
** ... 69 like lines cut
*Elset, elset=Set-1, generate
 266,  709,    1
*Nset, nset=Set-2
    1,    2,    3,    4,    5,    6,    7,    8,    9,   10,   11,   12,   13,   14,   19,   20
   21,   22,   23,   24,   25,   26,   27,   28,   29,   30,   31,   32,   33,   34,   35,   36
   37,   38,   39,   40,   41,   42,   43,   44,   45,   46,   47,   48,   49,   50,   51,   52
   53,   54,   55,   56,   57,   58,   59,   60,   61,   62,   63,   64,   65,   66,   67,   68
   69,   70,   71,   72,   73,   74,   75,   76,   77,   78,   79,   80,   81,   82,   83,   84
   85,   86,   87,   88,   89,   90,   91,   92,   93,   94,   95,   96,  151,  152,  153,  154
  155,  156,  157,  158,  159,  160,  161,  162,  163,  164,  165,  166,  167,  168,  169,  170
  171,  172,  173,  174,  175,  176,  177,  178,  179,  180,  181,  182,  183,  184,  185,  186
  187,  188,  189,  190,  191,  192,  193,  194,  195,  196,  197,  198,  199,  200,  201,  202
  203,  204,  205,  206,  207,  208,  209,  210,  211,  212,  213,  214,  215,  216,  217,  218
  219,  220,  221,  222,  223,  224,  225,  226,  227,  228,  229,  230,  231,  232,  233,  234
  235,  236,  237,  238,  239,  240,  241,  242,  243,  244,  245,  246,  247,  248,  249,  250
  251,  252,  253,  254,  255,  256,  257,  258,  259,  260,  261,  262,  263,  264,  265,  266
  267,  268,  269,  270,  271,  272,  273,  274,  275,  276,  277,  278,  279,  280,  281,  282
  283,  284,  285,  286,  287,  288,  289,  290,  291,  292,  293,  294,  295,  296,  297,  298
  299,  300,  301,  302,  303,  304,  305,  306,  307,  308,  309,  310,  311,  312,  313,  314
  315,  316,  317,  318,  319,  320,  321,  322,  323,  324,  325,  326,  327,  328,  329,  330
  331,  332,  333,  334,  335,  336,  337,  338,  339,  340,  341,  342,  343,  344,  345,  346
  347,  348,  349,  350,  351,  352,  353,  354,  355,  356,  357,  358,  359,  360,  361,  362
  363,  364,  365,  366,  367,  368,  369,  370,  775,  776,  777,  778,  779,  780,  781,  782
** ... 36 like lines cut
*Elset, elset=Set-2, generate
   1,  265,    1
*Nset, nset=Set-3
    1,    2,   15,   16,   17,   18,   19,   20,   21,   22,   23,   24,   25,   26,   27,   28
   29,   30,   31,   32,   33,   34,   35,   36,   37,   38,   39,   40,   97,   98,   99,  100
  101,  102,  103,  104,  105,  106,  107,  108,  109,  110,  111,  112,  113,  114,  115,  116
  117,  118,  119,  120,  121,  122,  123,  124,  125,  126,  127,  128,  129,  130,  131,  132
  133,  134,  135,  136,  137,  138,  139,  140,  141,  142,  143,  144,  145,  146,  147,  148
  149,  150,  371,  372,  373,  374,  375,  376,  377,  378,  379,  380,  381,  382,  383,  384
  385,  386,  387,  388,  389,  390,  391,  392,  393,  394,  395,  396,  397,  398,  399,  400
  401,  402,  403,  404,  405,  406,  407,  408,  409,  410,  411,  412,  413,  414,  415,  416
  417,  418,  419,  420,  421,  422,  423,  424,  425,  426,  427,  428,  429,  430,  431,  432
  433,  434,  435,  436,  437,  438,  439,  440,  441,  442,  443,  444,  445,  446,  447,  448
  449,  450,  451,  452,  453,  454,  455,  456,  457,  458,  459,  460,  461,  462,  463,  464
  465,  466,  467,  468,  469,  470,  471,  472,  473,  474,  475,  476,  477,  478,  479,  480
  481,  482,  483,  484,  485,  486,  487,  488,  489,  490,  491,  492,  493,  494,  495,  496
  497,  498,  499,  500,  501,  502,  503,  504,  505,  506,  507,  508,  509,  510,  511,  512
  513,  514,  515,  516,  517,  518,  519,  520,  521,  522,  523,  524,  525,  526,  527,  528
  529,  530,  531,  532,  533,  534,  535,  536,  537,  538,  539,  540,  541,  542,  543,  544
  545,  546,  547,  548,  549,  550,  551,  552,  553,  554,  555,  556,  557,  558,  559,  560
  561,  562,  563,  564,  565,  566,  567,  568,  569,  570,  571,  572,  573,  574,  575,  576
  577,  578,  579,  580,  581,  582,  583,  584,  585,  586,  587,  588,  589,  590,  591,  592
  593,  594,  595,  596,  597,  598,  599,  600,  601,  602,  603,  604,  605,  606,  607,  608
** ... 69 like lines cut
*Elset, elset=Set-3, generate
 266,  709,    1
*Nset, nset=Set-4
    1,    2,   15,   16,   17,   18,   19,   20,   21,   22,   23,   24,   25,   26,   27,   28
   29,   30,   31,   32,   33,   34,   35,   36,   37,   38,   39,   40,   97,   98,   99,  100
  101,  102,  103,  104,  105,  106,  107,  108,  109,  110,  111,  112,  113,  114,  115,  116
  117,  118,  119,  120,  121,  122,  123,  124,  125,  126,  127,  128,  129,  130,  131,  132
  133,  134,  135,  136,  137,  138,  139,  140,  141,  142,  143,  144,  145,  146,  147,  148
  149,  150,  371,  372,  373,  374,  375,  376,  377,  378,  379,  380,  381,  382,  383,  384
  385,  386,  387,  388,  389,  390,  391,  392,  393,  394,  395,  396,  397,  398,  399,  400
  401,  402,  403,  404,  405,  406,  407,  408,  409,  410,  411,  412,  413,  414,  415,  416
  417,  418,  419,  420,  421,  422,  423,  424,  425,  426,  427,  428,  429,  430,  431,  432
  433,  434,  435,  436,  437,  438,  439,  440,  441,  442,  443,  444,  445,  446,  447,  448
  449,  450,  451,  452,  453,  454,  455,  456,  457,  458,  459,  460,  461,  462,  463,  464
  465,  466,  467,  468,  469,  470,  471,  472,  473,  474,  475,  476,  477,  478,  479,  480
  481,  482,  483,  484,  485,  486,  487,  488,  489,  490,  491,  492,  493,  494,  495,  496
  497,  498,  499,  500,  501,  502,  503,  504,  505,  506,  507,  508,  509,  510,  511,  512
  513,  514,  515,  516,  517,  518,  519,  520,  521,  522,  523,  524,  525,  526,  527,  528
  529,  530,  531,  532,  533,  534,  535,  536,  537,  538,  539,  540,  541,  542,  543,  544
  545,  546,  547,  548,  549,  550,  551,  552,  553,  554,  555,  556,  557,  558,  559,  560
  561,  562,  563,  564,  565,  566,  567,  568,  569,  570,  571,  572,  573,  574,  575,  576
  577,  578,  579,  580,  581,  582,  583,  584,  585,  586,  587,  588,  589,  590,  591,  592
  593,  594,  595,  596,  597,  598,  599,  600,  601,  602,  603,  604,  605,  606,  607,  608
** ... 69 like lines cut
*Elset, elset=Set-4, generate
 266,  709,    1
*Nset, nset=Set-5
    1,    2,    3,    4,    5,    6,    7,    8,    9,   10,   11,   12,   13,   14,   19,   20
   21,   22,   23,   24,   25,   26,   27,   28,   29,   30,   31,   32,   33,   34,   35,   36
   37,   38,   39,   40,   41,   42,   43,   44,   45,   46,   47,   48,   49,   50,   51,   52
   53,   54,   55,   56,   57,   58,   59,   60,   61,   62,   63,   64,   65,   66,   67,   68
   69,   70,   71,   72,   73,   74,   75,   76,   77,   78,   79,   80,   81,   82,   83,   84
   85,   86,   87,   88,   89,   90,   91,   92,   93,   94,   95,   96,  151,  152,  153,  154
  155,  156,  157,  158,  159,  160,  161,  162,  163,  164,  165,  166,  167,  168,  169,  170
  171,  172,  173,  174,  175,  176,  177,  178,  179,  180,  181,  182,  183,  184,  185,  186
  187,  188,  189,  190,  191,  192,  193,  194,  195,  196,  197,  198,  199,  200,  201,  202
  203,  204,  205,  206,  207,  208,  209,  210,  211,  212,  213,  214,  215,  216,  217,  218
  219,  220,  221,  222,  223,  224,  225,  226,  227,  228,  229,  230,  231,  232,  233,  234
  235,  236,  237,  238,  239,  240,  241,  242,  243,  244,  245,  246,  247,  248,  249,  250
  251,  252,  253,  254,  255,  256,  257,  258,  259,  260,  261,  262,  263,  264,  265,  266
  267,  268,  269,  270,  271,  272,  273,  274,  275,  276,  277,  278,  279,  280,  281,  282
  283,  284,  285,  286,  287,  288,  289,  290,  291,  292,  293,  294,  295,  296,  297,  298
  299,  300,  301,  302,  303,  304,  305,  306,  307,  308,  309,  310,  311,  312,  313,  314
  315,  316,  317,  318,  319,  320,  321,  322,  323,  324,  325,  326,  327,  328,  329,  330
  331,  332,  333,  334,  335,  336,  337,  338,  339,  340,  341,  342,  343,  344,  345,  346
  347,  348,  349,  350,  351,  352,  353,  354,  355,  356,  357,  358,  359,  360,  361,  362
  363,  364,  365,  366,  367,  368,  369,  370,  775,  776,  777,  778,  779,  780,  781,  782
** ... 36 like lines cut
*Elset, elset=Set-5, generate
   1,  265,    1
*Nset, nset=Set-6
    1,    2,    3,    4,    5,    6,    7,    8,    9,   10,   11,   12,   13,   14,   19,   20
   21,   22,   23,   24,   25,   26,   27,   28,   29,   30,   31,   32,   33,   34,   35,   36
   37,   38,   39,   40,   41,   42,   43,   44,   45,   46,   47,   48,   49,   50,   51,   52
   53,   54,   55,   56,   57,   58,   59,   60,   61,   62,   63,   64,   65,   66,   67,   68
   69,   70,   71,   72,   73,   74,   75,   76,   77,   78,   79,   80,   81,   82,   83,   84
   85,   86,   87,   88,   89,   90,   91,   92,   93,   94,   95,   96,  151,  152,  153,  154
  155,  156,  157,  158,  159,  160,  161,  162,  163,  164,  165,  166,  167,  168,  169,  170
  171,  172,  173,  174,  175,  176,  177,  178,  179,  180,  181,  182,  183,  184,  185,  186
  187,  188,  189,  190,  191,  192,  193,  194,  195,  196,  197,  198,  199,  200,  201,  202
  203,  204,  205,  206,  207,  208,  209,  210,  211,  212,  213,  214,  215,  216,  217,  218
  219,  220,  221,  222,  223,  224,  225,  226,  227,  228,  229,  230,  231,  232,  233,  234
  235,  236,  237,  238,  239,  240,  241,  242,  243,  244,  245,  246,  247,  248,  249,  250
  251,  252,  253,  254,  255,  256,  257,  258,  259,  260,  261,  262,  263,  264,  265,  266
  267,  268,  269,  270,  271,  272,  273,  274,  275,  276,  277,  278,  279,  280,  281,  282
  283,  284,  285,  286,  287,  288,  289,  290,  291,  292,  293,  294,  295,  296,  297,  298
  299,  300,  301,  302,  303,  304,  305,  306,  307,  308,  309,  310,  311,  312,  313,  314
  315,  316,  317,  318,  319,  320,  321,  322,  323,  324,  325,  326,  327,  328,  329,  330
  331,  332,  333,  334,  335,  336,  337,  338,  339,  340,  341,  342,  343,  344,  345,  346
  347,  348,  349,  350,  351,  352,  353,  354,  355,  356,  357,  358,  359,  360,  361,  362
  363,  364,  365,  366,  367,  368,  369,  370,  775,  776,  777,  778,  779,  780,  781,  782
** ... 36 like lines cut
*Elset, elset=Set-6, generate
   1,  265,    1
*Nset, nset=Set-7, generate
    1,  2256,     1
*Elset, elset=Set-7, generate
   1,  709,    1
*Nset, nset=Set-8
    1,    2,   15,   16,   17,   18,   19,   20,   21,   22,   23,   24,   25,   26,   27,   28
   29,   30,   31,   32,   33,   34,   35,   36,   37,   38,   39,   40,   97,   98,   99,  100
  101,  102,  103,  104,  105,  106,  107,  108,  109,  110,  111,  112,  113,  114,  115,  116
  117,  118,  119,  120,  121,  122,  123,  124,  125,  126,  127,  128,  129,  130,  131,  132
  133,  134,  135,  136,  137,  138,  139,  140,  141,  142,  143,  144,  145,  146,  147,  148
  149,  150,  371,  372,  373,  374,  375,  376,  377,  378,  379,  380,  381,  382,  383,  384
  385,  386,  387,  388,  389,  390,  391,  392,  393,  394,  395,  396,  397,  398,  399,  400
  401,  402,  403,  404,  405,  406,  407,  408,  409,  410,  411,  412,  413,  414,  415,  416
  417,  418,  419,  420,  421,  422,  423,  424,  425,  426,  427,  428,  429,  430,  431,  432
  433,  434,  435,  436,  437,  438,  439,  440,  441,  442,  443,  444,  445,  446,  447,  448
  449,  450,  451,  452,  453,  454,  455,  456,  457,  458,  459,  460,  461,  462,  463,  464
  465,  466,  467,  468,  469,  470,  471,  472,  473,  474,  475,  476,  477,  478,  479,  480
  481,  482,  483,  484,  485,  486,  487,  488,  489,  490,  491,  492,  493,  494,  495,  496
  497,  498,  499,  500,  501,  502,  503,  504,  505,  506,  507,  508,  509,  510,  511,  512
  513,  514,  515,  516,  517,  518,  519,  520,  521,  522,  523,  524,  525,  526,  527,  528
  529,  530,  531,  532,  533,  534,  535,  536,  537,  538,  539,  540,  541,  542,  543,  544
  545,  546,  547,  548,  549,  550,  551,  552,  553,  554,  555,  556,  557,  558,  559,  560
  561,  562,  563,  564,  565,  566,  567,  568,  569,  570,  571,  572,  573,  574,  575,  576
  577,  578,  579,  580,  581,  582,  583,  584,  585,  586,  587,  588,  589,  590,  591,  592
  593,  594,  595,  596,  597,  598,  599,  600,  601,  602,  603,  604,  605,  606,  607,  608
** ... 69 like lines cut
*Elset, elset=Set-8, generate
 266,  709,    1
*Nset, nset=Set-9
    1,    2,    3,    4,    5,    6,    7,    8,    9,   10,   11,   12,   13,   14,   19,   20
   21,   22,   23,   24,   25,   26,   27,   28,   29,   30,   31,   32,   33,   34,   35,   36
   37,   38,   39,   40,   41,   42,   43,   44,   45,   46,   47,   48,   49,   50,   51,   52
   53,   54,   55,   56,   57,   58,   59,   60,   61,   62,   63,   64,   65,   66,   67,   68
   69,   70,   71,   72,   73,   74,   75,   76,   77,   78,   79,   80,   81,   82,   83,   84
   85,   86,   87,   88,   89,   90,   91,   92,   93,   94,   95,   96,  151,  152,  153,  154
  155,  156,  157,  158,  159,  160,  161,  162,  163,  164,  165,  166,  167,  168,  169,  170
  171,  172,  173,  174,  175,  176,  177,  178,  179,  180,  181,  182,  183,  184,  185,  186
  187,  188,  189,  190,  191,  192,  193,  194,  195,  196,  197,  198,  199,  200,  201,  202
  203,  204,  205,  206,  207,  208,  209,  210,  211,  212,  213,  214,  215,  216,  217,  218
  219,  220,  221,  222,  223,  224,  225,  226,  227,  228,  229,  230,  231,  232,  233,  234
  235,  236,  237,  238,  239,  240,  241,  242,  243,  244,  245,  246,  247,  248,  249,  250
  251,  252,  253,  254,  255,  256,  257,  258,  259,  260,  261,  262,  263,  264,  265,  266
  267,  268,  269,  270,  271,  272,  273,  274,  275,  276,  277,  278,  279,  280,  281,  282
  283,  284,  285,  286,  287,  288,  289,  290,  291,  292,  293,  294,  295,  296,  297,  298
  299,  300,  301,  302,  303,  304,  305,  306,  307,  308,  309,  310,  311,  312,  313,  314
  315,  316,  317,  318,  319,  320,  321,  322,  323,  324,  325,  326,  327,  328,  329,  330
  331,  332,  333,  334,  335,  336,  337,  338,  339,  340,  341,  342,  343,  344,  345,  346
  347,  348,  349,  350,  351,  352,  353,  354,  355,  356,  357,  358,  359,  360,  361,  362
  363,  364,  365,  366,  367,  368,  369,  370,  775,  776,  777,  778,  779,  780,  781,  782
** ... 36 like lines cut
*Elset, elset=Set-9, generate
   1,  265,    1
*Nset, nset=Set-10
    1,    2,    3,    4,    5,    6,    7,    8,    9,   10,   11,   12,   13,   14,   19,   20
   21,   22,   23,   24,   25,   26,   27,   28,   29,   30,   31,   32,   33,   34,   35,   36
   37,   38,   39,   40,   41,   42,   43,   44,   45,   46,   47,   48,   49,   50,   51,   52
   53,   54,   55,   56,   57,   58,   59,   60,   61,   62,   63,   64,   65,   66,   67,   68
   69,   70,   71,   72,   73,   74,   75,   76,   77,   78,   79,   80,   81,   82,   83,   84
   85,   86,   87,   88,   89,   90,   91,   92,   93,   94,   95,   96,  151,  152,  153,  154
  155,  156,  157,  158,  159,  160,  161,  162,  163,  164,  165,  166,  167,  168,  169,  170
  171,  172,  173,  174,  175,  176,  177,  178,  179,  180,  181,  182,  183,  184,  185,  186
  187,  188,  189,  190,  191,  192,  193,  194,  195,  196,  197,  198,  199,  200,  201,  202
  203,  204,  205,  206,  207,  208,  209,  210,  211,  212,  213,  214,  215,  216,  217,  218
  219,  220,  221,  222,  223,  224,  225,  226,  227,  228,  229,  230,  231,  232,  233,  234
  235,  236,  237,  238,  239,  240,  241,  242,  243,  244,  245,  246,  247,  248,  249,  250
  251,  252,  253,  254,  255,  256,  257,  258,  259,  260,  261,  262,  263,  264,  265,  266
  267,  268,  269,  270,  271,  272,  273,  274,  275,  276,  277,  278,  279,  280,  281,  282
  283,  284,  285,  286,  287,  288,  289,  290,  291,  292,  293,  294,  295,  296,  297,  298
  299,  300,  301,  302,  303,  304,  305,  306,  307,  308,  309,  310,  311,  312,  313,  314
  315,  316,  317,  318,  319,  320,  321,  322,  323,  324,  325,  326,  327,  328,  329,  330
  331,  332,  333,  334,  335,  336,  337,  338,  339,  340,  341,  342,  343,  344,  345,  346
  347,  348,  349,  350,  351,  352,  353,  354,  355,  356,  357,  358,  359,  360,  361,  362
  363,  364,  365,  366,  367,  368,  369,  370,  775,  776,  777,  778,  779,  780,  781,  782
** ... 36 like lines cut
*Elset, elset=Set-10, generate
   1,  265,    1
*Nset, nset=Set-11
    1,    2,    3,    4,    5,    6,    7,    8,    9,   10,   11,   12,   13,   14,   19,   20
   21,   22,   23,   24,   25,   26,   27,   28,   29,   30,   31,   32,   33,   34,   35,   36
   37,   38,   39,   40,   41,   42,   43,   44,   45,   46,   47,   48,   49,   50,   51,   52
   53,   54,   55,   56,   57,   58,   59,   60,   61,   62,   63,   64,   65,   66,   67,   68
   69,   70,   71,   72,   73,   74,   75,   76,   77,   78,   79,   80,   81,   82,   83,   84
   85,   86,   87,   88,   89,   90,   91,   92,   93,   94,   95,   96,  151,  152,  153,  154
  155,  156,  157,  158,  159,  160,  161,  162,  163,  164,  165,  166,  167,  168,  169,  170
  171,  172,  173,  174,  175,  176,  177,  178,  179,  180,  181,  182,  183,  184,  185,  186
  187,  188,  189,  190,  191,  192,  193,  194,  195,  196,  197,  198,  199,  200,  201,  202
  203,  204,  205,  206,  207,  208,  209,  210,  211,  212,  213,  214,  215,  216,  217,  218
  219,  220,  221,  222,  223,  224,  225,  226,  227,  228,  229,  230,  231,  232,  233,  234
  235,  236,  237,  238,  239,  240,  241,  242,  243,  244,  245,  246,  247,  248,  249,  250
  251,  252,  253,  254,  255,  256,  257,  258,  259,  260,  261,  262,  263,  264,  265,  266
  267,  268,  269,  270,  271,  272,  273,  274,  275,  276,  277,  278,  279,  280,  281,  282
  283,  284,  285,  286,  287,  288,  289,  290,  291,  292,  293,  294,  295,  296,  297,  298
  299,  300,  301,  302,  303,  304,  305,  306,  307,  308,  309,  310,  311,  312,  313,  314
  315,  316,  317,  318,  319,  320,  321,  322,  323,  324,  325,  326,  327,  328,  329,  330
  331,  332,  333,  334,  335,  336,  337,  338,  339,  340,  341,  342,  343,  344,  345,  346
  347,  348,  349,  350,  351,  352,  353,  354,  355,  356,  357,  358,  359,  360,  361,  362
  363,  364,  365,  366,  367,  368,  369,  370,  775,  776,  777,  778,  779,  780,  781,  782
** ... 36 like lines cut
*Elset, elset=Set-11, generate
   1,  265,    1
** Section: Tit-imp-sect
*Solid Section, elset=Set-11, material=titanium
11.5,
** Section: CoCr-imp-section
*Solid Section, elset=Set-8, material=Co-Cr
11.5,
*End Instance
**  
*Instance, name=osso-divided-cut-1, part=osso-divided-cut
*Node
      1,   14.6738605,   39.2061577
      2,   11.8524561,   36.4665146
      3,   14.6397963,   33.5959892
      4,   13.1702614,   32.1964111
      5,   11.5531521,   33.8943481
      6,   7.36112785,   29.9018822
      7,    8.9782362,   28.2039433
      8,   27.0339355,   9.24575329
      9,   14.8501854,  -2.35799742
     10,  -3.20551372,    16.600193
     11,   -4.8226223,   18.2981319
     12,  -8.85564423,    14.457098
     13,  -7.23853588,     12.75916
     14,  -9.12236786,   10.9650068
     15,  -11.6885185,   13.6077423
     16,  -15.6111403,    9.7987957
     17,  -3.49286699,  -2.66631794
     18, -0.942866981,        -42.5
     19,   19.4571323,        -42.5
     20,   30.9321327,   29.2086811
** ... 3579 like lines cut
*Element, type=CPS8R
  1,   30,  457,  455,   29, 1235, 1236, 1237, 1238
  2,  770,  787,  314,  657, 1239, 1240, 1241, 1242
  3,  680,  320,  621,  319, 1243, 1244, 1245, 1246
  4,  549,  179,  180,  515, 1247, 1248, 1249, 1250
  5,  515,  180,  181,  507, 1249, 1251, 1252, 1253
  6,  515,  507,  320,  680, 1253, 1254, 1243, 1255
  7,  647,  315,  579, 1031, 1256, 1257, 1258, 1259
  8,  652,  480,  578,  302, 1260, 1261, 1262, 1263
  9,  478,  600,  571,  479, 1264, 1265, 1266, 1267
 10,  301,  478,  193,  194, 1268, 1269, 1270, 1271
 11,  194,  195,  987,  301, 1272, 1273, 1274, 1271
 12,  196,  477,  987,  195, 1275, 1276, 1273, 1277
 13,  192,  193,  478,  479, 1278, 1269, 1267, 1279
 14,   33,  932,  452,   32, 1280, 1281, 1282, 1283
 15,   32,  452,   31,    5, 1282, 1284, 1285, 1286
 16,  686, 1016,  556,  635, 1287, 1288, 1289, 1290
 17,  764, 1073, 1045,  612, 1291, 1292, 1293, 1294
 18, 1060,  834,  806, 1046, 1295, 1296, 1297, 1298
 19,  636,  691,  725,  322, 1299, 1300, 1301, 1302
 20,  687, 1029,  706,  645, 1303, 1304, 1305, 1306
** ... 1112 like lines cut
*Nset, nset=Set-1
    1,    2,    3,    4,    5,    6,    7,    8,    9,   10,   11,   12,   13,   14,   15,   16
   17,   18,   19,   20,   27,   28,   29,   30,   31,   32,   33,   34,   35,   36,   37,   38
   39,   40,   41,   42,   43,   44,   45,   46,   47,   48,   49,   50,   51,   52,   53,   54
   55,   56,   57,   58,   59,   60,   61,   62,   63,   64,   65,   66,   67,   68,   69,   70
   71,   72,   73,   74,   75,   76,   77,   78,   79,   80,   81,   82,   83,   84,   85,   86
   87,   88,   89,   90,   91,   92,   93,   94,   95,   96,   97,   98,   99,  100,  101,  102
  103,  104,  105,  106,  107,  108,  109,  110,  111,  112,  113,  114,  115,  116,  117,  118
  119,  120,  121,  122,  123,  124,  125,  126,  127,  128,  129,  130,  131,  132,  133,  134
  135,  136,  137,  138,  139,  140,  141,  142,  143,  144,  145,  146,  147,  148,  149,  150
  151,  152,  153,  154,  155,  156,  157,  158,  159,  160,  161,  162,  163,  164,  165,  166
  167,  168,  169,  170,  171,  172,  173,  174,  175,  176,  177,  178,  179,  180,  181,  182
  183,  184,  185,  186,  187,  188,  189,  190,  191,  192,  193,  194,  195,  196,  301,  302
  303,  304,  305,  306,  307,  308,  309,  310,  311,  312,  313,  314,  315,  316,  317,  318
  319,  320,  321,  322,  323,  324,  325,  326,  327,  328,  329,  330,  331,  332,  333,  334
  335,  336,  337,  338,  339,  340,  341,  342,  343,  344,  345,  346,  347,  348,  349,  350
  351,  352,  353,  354,  355,  356,  357,  358,  359,  360,  361,  362,  363,  364,  365,  366
  367,  368,  369,  370,  371,  372,  373,  374,  375,  376,  377,  378,  379,  380,  381,  382
  383,  384,  385,  386,  387,  388,  389,  390,  391,  392,  393,  394,  395,  396,  397,  398
  399,  400,  401,  402,  403,  404,  405,  406,  407,  408,  409,  410,  411,  412,  413,  414
  415,  416,  417,  418,  419,  420,  421,  422,  423,  424,  425,  426,  427,  428,  429,  430
** ... 167 like lines cut
*Elset, elset=Set-1, generate
   1,  929,    1
*Nset, nset=Set-2
    1,   16,   17,   18,   19,   20,   21,   22,   23,   24,   25,   26,   88,   89,   90,   91
   92,   93,   94,   95,   96,   97,   98,   99,  100,  101,  102,  103,  104,  105,  106,  107
  108,  109,  110,  111,  112,  113,  114,  115,  116,  117,  118,  119,  120,  121,  122,  123
  124,  138,  139,  140,  141,  142,  143,  144,  145,  146,  147,  148,  149,  150,  151,  152
  153,  154,  155,  156,  157,  158,  159,  160,  161,  162,  163,  164,  165,  166,  167,  168
  169,  170,  171,  172,  173,  174,  175,  176,  177,  178,  179,  180,  181,  182,  183,  184
  185,  186,  187,  188,  189,  190,  191,  192,  193,  194,  195,  196,  197,  198,  199,  200
  201,  202,  203,  204,  205,  206,  207,  208,  209,  210,  211,  212,  213,  214,  215,  216
  217,  218,  219,  220,  221,  222,  223,  224,  225,  226,  227,  228,  229,  230,  231,  232
  233,  234,  235,  236,  237,  238,  239,  240,  241,  242,  243,  244,  245,  246,  247,  248
  249,  250,  251,  252,  253,  254,  255,  256,  257,  258,  259,  260,  261,  262,  263,  264
  265,  266,  267,  268,  269,  270,  271,  272,  273,  274,  275,  276,  277,  278,  279,  280
  281,  282,  283,  284,  285,  286,  287,  288,  289,  290,  291,  292,  293,  294,  295,  296
  297,  298,  299,  300, 1136, 1137, 1138, 1139, 1140, 1141, 1142, 1143, 1144, 1145, 1146, 1147
 1148, 1149, 1150, 1151, 1152, 1153, 1154, 1155, 1156, 1157, 1158, 1159, 1160, 1161, 1162, 1163
 1164, 1165, 1166, 1167, 1168, 1169, 1170, 1171, 1172, 1173, 1174, 1175, 1176, 1177, 1178, 1179
 1180, 1181, 1182, 1183, 1184, 1185, 1186, 1187, 1188, 1189, 1190, 1191, 1192, 1193, 1194, 1195
 1196, 1197, 1198, 1199, 1200, 1201, 1202, 1203, 1204, 1205, 1206, 1207, 1208, 1209, 1210, 1211
 1212, 1213, 1214, 1215, 1216, 1217, 1218, 1219, 1220, 1221, 1222, 1223, 1224, 1225, 1226, 1227
 1228, 1229, 1230, 1231, 1232, 1233, 1234, 1248, 1251, 1270, 1272, 1277, 1278, 1308, 1313, 1365
** ... 32 like lines cut
*Elset, elset=Set-2, generate
  930,  1132,     1
** Section: osso-trabecular-sect
*Solid Section, elset=Set-1, material=osso-trabecular
22.5,
** Section: osso-section
*Solid Section, elset=Set-2, material=osso-cortical
22.5,
*End Instance
**  
*Node
      1,  -4.47746229,    45.453949,           0.
*Node
      2,   30.7769642,    36.044754,           0.
*Node
      3,   4.02018499,   21.3664093,           0.
*Nset, nset=Set-61
 1,
*Nset, nset=Set-62
 2,
*Nset, nset=Set-63, instance=osso-divided-cut-1
   18,   19,   22,   24,  125,  126,  127,  128,  129,  130,  131,  132,  133,  134,  135,  136
  137,  236,  239, 1837, 1841, 1848, 1932, 1943, 1952, 2476, 2487, 2491, 2493, 2542, 2547, 2548
 2549, 3292, 3294, 3504, 3550
*Elset, elset=Set-63, instance=osso-divided-cut-1
  173,  174,  176,  201,  204,  206,  394,  399,  400,  401,  429,  432,  433,  434,  967,  968
 1061, 1089
*Nset, nset=Set-69
 2,
*Nset, nset=m_Set-59
 1,
*Nset, nset=m_Set-60
 2,
*Nset, nset=m_Set-66
 3,
*Nset, nset=m_Set-67
 3,
*Nset, nset=points-divided, instance=osso-divided-cut-1
 1875,
*Nset, nset=points-divided, instance=implante-2-Copy4-1
 1300, 2210
*Elset, elset=_m_Surf-11_S2, internal, instance=implante-2-Copy4-1
 279, 299, 313, 332, 335
*Elset, elset=_m_Surf-11_S4, internal, instance=implante-2-Copy4-1
 300, 301, 302, 333, 334
*Elset, elset=_m_Surf-11_S3, internal, instance=implante-2-Copy4-1
 303, 304
*Surface, type=ELEMENT, name=m_Surf-11
_m_Surf-11_S2, S2
_m_Surf-11_S4, S4
_m_Surf-11_S3, S3
*Elset, elset=_m_Surf-13_S3, internal, instance=implante-2-Copy4-1
   1,   6,  13,  18,  29,  30,  34,  35,  39,  40,  43,  44,  47,  48,  51,  52
  53,  55,  56,  59,  61,  66,  78,  83,  84,  89,  93,  99, 101
*Elset, elset=_m_Surf-13_S4, internal, instance=implante-2-Copy4-1
   2,  23,  27,  28,  29,  44,  52,  67, 130
*Elset, elset=_m_Surf-13_S1, internal, instance=implante-2-Copy4-1
   3,   4,   8,  14,  19,  28,  32,  37,  38,  45,  46,  50,  58,  60,  62,  65
  68,  70,  73,  82,  85,  87, 100, 102, 103, 108
*Elset, elset=_m_Surf-13_S2, internal, instance=implante-2-Copy4-1
  5,  7, 25, 26, 66
*Surface, type=ELEMENT, name=m_Surf-13
_m_Surf-13_S3, S3
_m_Surf-13_S4, S4
_m_Surf-13_S2, S2
_m_Surf-13_S1, S1
*Elset, elset=_mast2-haste_S3, internal, instance=implante-2-Copy4-1
   1,   6,  13,  18,  29,  30,  34,  35,  39,  40,  43,  44,  47,  48,  51,  52
  53,  55,  56,  59,  61,  66,  78,  83,  84,  89,  93,  99, 101
*Elset, elset=_mast2-haste_S4, internal, instance=implante-2-Copy4-1
   2,  23,  27,  28,  29,  44,  52,  67, 130
*Elset, elset=_mast2-haste_S1, internal, instance=implante-2-Copy4-1
   3,   4,   8,  14,  19,  28,  32,  37,  38,  45,  46,  50,  58,  60,  62,  65
  68,  70,  73,  82,  85,  87, 100, 102, 103, 108
*Elset, elset=_mast2-haste_S2, internal, instance=implante-2-Copy4-1
  5,  7, 25, 26, 66
*Surface, type=ELEMENT, name=mast2-haste
_mast2-haste_S3, S3
_mast2-haste_S4, S4
_mast2-haste_S2, S2
_mast2-haste_S1, S1
*Elset, elset=_master1-head_S2, internal, instance=implante-2-Copy4-1
 279, 299, 313, 332, 335
*Elset, elset=_master1-head_S4, internal, instance=implante-2-Copy4-1
 300, 301, 302, 333, 334
*Elset, elset=_master1-head_S3, internal, instance=implante-2-Copy4-1
 303, 304
*Surface, type=ELEMENT, name=master1-head
_master1-head_S2, S2
_master1-head_S4, S4
_master1-head_S3, S3
*Elset, elset=_s_Surf-7_S1, internal, instance=osso-divided-cut-1
   98,  357,  358,  383,  410,  989, 1013, 1076
*Elset, elset=_s_Surf-7_S2, internal, instance=osso-divided-cut-1
 97,
*Elset, elset=_s_Surf-7_S4, internal, instance=osso-divided-cut-1
 384, 930, 942
*Elset, elset=_s_Surf-7_S3, internal, instance=osso-divided-cut-1
 1014,
*Surface, type=ELEMENT, name=s_Surf-7
_s_Surf-7_S1, S1
_s_Surf-7_S2, S2
_s_Surf-7_S4, S4
_s_Surf-7_S3, S3
*Elset, elset=_s_Surf-9_S4, internal, instance=osso-divided-cut-1
   1,  14,  15,  24,  25,  27,  29,  31,  33,  50,  51,  57,  66,  70,  72,  84
  86,  88,  89,  92,  94,  96, 235, 237, 284, 356, 361, 367, 368, 383, 894
*Elset, elset=_s_Surf-9_S2, internal, instance=osso-divided-cut-1
  28,  32,  42,  58,  76,  95, 241, 358, 360, 362, 363, 365, 370, 372, 374, 375
 379, 584, 613, 622, 895
*Elset, elset=_s_Surf-9_S1, internal, instance=osso-divided-cut-1
  67,  75, 227, 359, 376, 378, 381, 415, 417, 422
*Elset, elset=_s_Surf-9_S3, internal, instance=osso-divided-cut-1
  15,  24,  66,  87,  94, 364, 380
*Surface, type=ELEMENT, name=s_Surf-9
_s_Surf-9_S4, S4
_s_Surf-9_S2, S2
_s_Surf-9_S1, S1
_s_Surf-9_S3, S3
*Elset, elset=_s_Surf-11_S2, internal, instance=implante-2-Copy4-1
 279, 313, 332, 335
*Elset, elset=_s_Surf-11_S2, internal, instance=osso-divided-cut-1
 97,
*Elset, elset=_s_Surf-11_S4, internal, instance=implante-2-Copy4-1
 333, 334
*Elset, elset=_s_Surf-11_S4, internal, instance=osso-divided-cut-1
 384, 930, 942
*Elset, elset=_s_Surf-11_S1, internal, instance=osso-divided-cut-1
   98,  357,  358,  383,  410,  989, 1013, 1076
*Elset, elset=_s_Surf-11_S3, internal, instance=osso-divided-cut-1
 1014,
*Surface, type=ELEMENT, name=s_Surf-11
_s_Surf-11_S2, S2
_s_Surf-11_S4, S4
_s_Surf-11_S1, S1
_s_Surf-11_S3, S3
*Elset, elset=_s_Surf-13_S4, internal, instance=osso-divided-cut-1
   1,  14,  15,  24,  25,  27,  29,  31,  33,  50,  51,  57,  66,  70,  72,  84
  86,  88,  89,  92,  94,  96, 235, 237, 284, 356, 361, 367, 368, 383, 894
*Elset, elset=_s_Surf-13_S2, internal, instance=osso-divided-cut-1
  28,  32,  42,  58,  76,  95, 241, 358, 360, 362, 363, 365, 370, 372, 374, 375
 379, 584, 613, 622, 895
*Elset, elset=_s_Surf-13_S1, internal, instance=osso-divided-cut-1
  67,  75, 227, 359, 376, 378, 381, 415, 417, 422
*Elset, elset=_s_Surf-13_S3, internal, instance=osso-divided-cut-1
  15,  24,  66,  87,  94, 364, 380
*Surface, type=ELEMENT, name=s_Surf-13
_s_Surf-13_S4, S4
_s_Surf-13_S2, S2
_s_Surf-13_S1, S1
_s_Surf-13_S3, S3
*Elset, elset=_s_Surf-15_S3, internal, instance=implante-2-Copy4-1
 293, 305, 343
*Elset, elset=_s_Surf-15_S1, internal, instance=implante-2-Copy4-1
 341,
*Surface, type=ELEMENT, name=s_Surf-15
_s_Surf-15_S3, S3
_s_Surf-15_S1, S1
*Elset, elset=_s_Surf-16_S3, internal, instance=osso-divided-cut-1
 1070,
*Elset, elset=_s_Surf-16_S1, internal, instance=osso-divided-cut-1
 1072,
*Elset, elset=_s_Surf-16_S4, internal, instance=osso-divided-cut-1
 1098,
*Elset, elset=_s_Surf-16_S2, internal, instance=osso-divided-cut-1
 1101,
*Surface, type=ELEMENT, name=s_Surf-16
_s_Surf-16_S3, S3
_s_Surf-16_S1, S1
_s_Surf-16_S4, S4
_s_Surf-16_S2, S2
*Elset, elset=_s_Surf-17_S3, internal, instance=implante-2-Copy4-1
 293, 305, 343
*Elset, elset=_s_Surf-17_S1, internal, instance=implante-2-Copy4-1
 341,
*Surface, type=ELEMENT, name=s_Surf-17
_s_Surf-17_S3, S3
_s_Surf-17_S1, S1
*Elset, elset=_s_Surf-18_S3, internal, instance=osso-divided-cut-1
 1070,
*Elset, elset=_s_Surf-18_S1, internal, instance=osso-divided-cut-1
 1072,
*Elset, elset=_s_Surf-18_S4, internal, instance=osso-divided-cut-1
 1098,
*Elset, elset=_s_Surf-18_S2, internal, instance=osso-divided-cut-1
 1101,
*Surface, type=ELEMENT, name=s_Surf-18
_s_Surf-18_S3, S3
_s_Surf-18_S1, S1
_s_Surf-18_S4, S4
_s_Surf-18_S2, S2
** Constraint: Constraint-1
*Tie, name=Constraint-1, adjust=yes, type=SURFACE TO SURFACE
s_Surf-11, m_Surf-11
** Constraint: Constraint-2
*Tie, name=Constraint-2, adjust=yes, type=SURFACE TO SURFACE
s_Surf-13, m_Surf-13
** Constraint: Constraint-3
*Coupling, constraint name=Constraint-3, ref node=m_Set-59, surface=s_Surf-15
*Distributing, weighting method=UNIFORM
** Constraint: Constraint-4
*Coupling, constraint name=Constraint-4, ref node=m_Set-60, surface=s_Surf-16
*Distributing, weighting method=UNIFORM
** Constraint: Constraint-5
*Coupling, constraint name=Constraint-5, ref node=m_Set-66, surface=s_Surf-17
*Distributing, weighting method=UNIFORM
** Constraint: Constraint-6
*Coupling, constraint name=Constraint-6, ref node=m_Set-67, surface=s_Surf-18
*Distributing, weighting method=UNIFORM
*End Assembly
** 
** MATERIALS
** 
*Material, name=Co-Cr
*Elastic
230000., 0.3
*Material, name=alumina
*Elastic
380000., 0.21
*Material, name=osso-cortical
*Elastic
17000., 0.3
*Material, name=osso-trabecular
*Elastic
1380., 0.3
*Material, name=stainless-steel-316
*Elastic
200000., 0.3
*Material, name=titanium
*Elastic
110000., 0.3
** ----------------------------------------------------------------
** 
** STEP: Step-1
** 
*Step, name=Step-1, nlgeom=NO
*Static
1., 1., 1e-05, 1.
** 
** BOUNDARY CONDITIONS
** 
** Name: BC-2 Type: Symmetry/Antisymmetry/Encastre
*Boundary
Set-63, ENCASTRE
** 
** LOADS
** 
** Name: Load-2   Type: Concentrated force
*Cload
Set-69, 1, -210.
Set-69, 2, 250.
** Name: Load-3   Type: Concentrated force
*Cload
Set-61, 1, 800.
Set-61, 2, 800.
** 
** OUTPUT REQUESTS
** 
*Restart, write, frequency=0
** 
** FIELD OUTPUT: F-Output-1
** 
*Output, field, variable=PRESELECT
** 
** HISTORY OUTPUT: H-Output-1
** 
*Output, history, variable=PRESELECT
*End Step
