*Heading
** Job name: job-implant-base Model name: Model-1
** Generated by: Abaqus/CAE 2022
*Preprint, echo=NO, model=NO, history=NO, contact=NO
**
** PARTS
**
*Part, name=implante-2-Copy4
*End Part
**  
*Part, name=osso-cut
*End Part
**  
**
** ASSEMBLY
**
*Assembly, name=Assembly
**  
*Instance, name=implante-2-Copy4-1, part=implante-2-Copy4
   13.496435,     -5.70859,           0.
*Node
      1,  -1.64397871,    42.175106
      2,  -25.1849537,   19.3163319
      3,   -22.618803,   16.6735973
      4,  -20.7349701,   18.4677505
      5,  -22.3520794,   20.1656876
      6,  -18.3190575,   24.0067215
      7,  -16.7019482,   22.3087826
      8,   1.35374999,   3.35059237
      9,   13.5375004,   14.9543428
     10,  -4.51819849,   33.9125328
     11,  -6.13530731,   35.6104736
     12,   -1.9432826,   39.6029396
     13, -0.326174021,   37.9049988
     14,   1.14336121,   39.3045807
     15,   4.69218206,   48.3276482
     16,  -19.5679531,   50.5393791
     17,  -23.9812908,     48.09935
     18,  -31.1362495,   13.5375004
     19,  -2.71402311,   41.1360703
     20,  -3.78406739,   40.0970345
** ... 2200 like lines cut
*Element, type=CPS8R
  1,  150,  364,   40,   41,  763,  764,  765,  766
  2,   43,  150,   42,    4,  767,  768,  769,  770
  3,   37,   44,   45,   36,  771,  772,  773,  774
  4,  151,   47,    7,  153,  775,  776,  777,  778
  5,   22,   91,   92,   21,  779,  780,  781,  782
  6,   19,   12,  363,    1,  783,  784,  785,  786
  7,  154,   94,   13,  152,  787,  788,  789,  790
  8,   95,   96,  154,  152,  791,  792,  790,  793
  9,  157,  158,   26,   27,  794,  795,  796,  797
 10,  153,  196,  367,  195,  798,  799,  800,  801
 11,  270,  219,  214,  261,  802,  803,  804,  805
 12,   30,   31,  197,  155,  806,  807,  808,  809
 13,    2,   40,  364,   39,  810,  764,  811,  812
 14,    5,   38,   39,  364,  813,  814,  811,  815
 15,   38,    5,   44,   37,  813,  816,  771,  817
 16,   36,   45,   46,   35,  773,  818,  819,  820
 17,    6,   34,   35,   46,  821,  822,  819,  823
 18,   34,    6,  200,   33,  821,  824,  825,  826
 19,  151,  153,  195,  200,  778,  801,  827,  828
 20,  151,  200,    6,   47,  828,  824,  829,  775
** ... 677 like lines cut
*Nset, nset=Set-1
    1,    2,   15,   16,   17,   18,   19,   20,   21,   22,   23,   24,   25,   26,   27,   28
   29,   30,   31,   32,   33,   34,   35,   36,   37,   38,   39,   97,   98,   99,  100,  101
  102,  103,  104,  105,  106,  107,  108,  109,  110,  111,  112,  113,  114,  115,  116,  117
  118,  119,  120,  121,  122,  123,  124,  125,  126,  127,  128,  129,  130,  131,  132,  133
  134,  135,  136,  137,  138,  139,  140,  141,  142,  143,  144,  145,  146,  147,  148,  149
  373,  374,  375,  376,  377,  378,  379,  380,  381,  382,  383,  384,  385,  386,  387,  388
  389,  390,  391,  392,  393,  394,  395,  396,  397,  398,  399,  400,  401,  402,  403,  404
  405,  406,  407,  408,  409,  410,  411,  412,  413,  414,  415,  416,  417,  418,  419,  420
  421,  422,  423,  424,  425,  426,  427,  428,  429,  430,  431,  432,  433,  434,  435,  436
  437,  438,  439,  440,  441,  442,  443,  444,  445,  446,  447,  448,  449,  450,  451,  452
  453,  454,  455,  456,  457,  458,  459,  460,  461,  462,  463,  464,  465,  466,  467,  468
  469,  470,  471,  472,  473,  474,  475,  476,  477,  478,  479,  480,  481,  482,  483,  484
  485,  486,  487,  488,  489,  490,  491,  492,  493,  494,  495,  496,  497,  498,  499,  500
  501,  502,  503,  504,  505,  506,  507,  508,  509,  510,  511,  512,  513,  514,  515,  516
  517,  518,  519,  520,  521,  522,  523,  524,  525,  526,  527,  528,  529,  530,  531,  532
  533,  534,  535,  536,  537,  538,  539,  540,  541,  542,  543,  544,  545,  546,  547,  548
  549,  550,  551,  552,  553,  554,  555,  556,  557,  558,  559,  560,  561,  562,  563,  564
  565,  566,  567,  568,  569,  570,  571,  572,  573,  574,  575,  576,  577,  578,  579,  580
  581,  582,  583,  584,  585,  586,  587,  588,  589,  590,  591,  592,  593,  594,  595,  596
  597,  598,  599,  600,  601,  602,  603,  604,  605,  606,  607,  608,  609,  610,  611,  612
** ... 66 like lines cut
*Elset, elset=Set-1, generate
 269,  697,    1
*Nset, nset=Set-2
    1,    2,    3,    4,    5,    6,    7,    8,    9,   10,   11,   12,   13,   14,   19,   20
   21,   22,   23,   24,   25,   26,   27,   28,   29,   30,   31,   32,   33,   34,   35,   36
   37,   38,   39,   40,   41,   42,   43,   44,   45,   46,   47,   48,   49,   50,   51,   52
   53,   54,   55,   56,   57,   58,   59,   60,   61,   62,   63,   64,   65,   66,   67,   68
   69,   70,   71,   72,   73,   74,   75,   76,   77,   78,   79,   80,   81,   82,   83,   84
   85,   86,   87,   88,   89,   90,   91,   92,   93,   94,   95,   96,  150,  151,  152,  153
  154,  155,  156,  157,  158,  159,  160,  161,  162,  163,  164,  165,  166,  167,  168,  169
  170,  171,  172,  173,  174,  175,  176,  177,  178,  179,  180,  181,  182,  183,  184,  185
  186,  187,  188,  189,  190,  191,  192,  193,  194,  195,  196,  197,  198,  199,  200,  201
  202,  203,  204,  205,  206,  207,  208,  209,  210,  211,  212,  213,  214,  215,  216,  217
  218,  219,  220,  221,  222,  223,  224,  225,  226,  227,  228,  229,  230,  231,  232,  233
  234,  235,  236,  237,  238,  239,  240,  241,  242,  243,  244,  245,  246,  247,  248,  249
  250,  251,  252,  253,  254,  255,  256,  257,  258,  259,  260,  261,  262,  263,  264,  265
  266,  267,  268,  269,  270,  271,  272,  273,  274,  275,  276,  277,  278,  279,  280,  281
  282,  283,  284,  285,  286,  287,  288,  289,  290,  291,  292,  293,  294,  295,  296,  297
  298,  299,  300,  301,  302,  303,  304,  305,  306,  307,  308,  309,  310,  311,  312,  313
  314,  315,  316,  317,  318,  319,  320,  321,  322,  323,  324,  325,  326,  327,  328,  329
  330,  331,  332,  333,  334,  335,  336,  337,  338,  339,  340,  341,  342,  343,  344,  345
  346,  347,  348,  349,  350,  351,  352,  353,  354,  355,  356,  357,  358,  359,  360,  361
  362,  363,  364,  365,  366,  367,  368,  369,  370,  371,  372,  763,  764,  765,  766,  767
** ... 37 like lines cut
*Elset, elset=Set-2, generate
   1,  268,    1
** Section: Tit-imp-sect
*Solid Section, elset=Set-2, material=titanium
11.5,
** Section: CoCr-imp-section
*Solid Section, elset=Set-1, material=Co-Cr
11.5,
*End Instance
**  
*Instance, name=osso-cut-1, part=osso-cut
*Node
      1,    14.514101,   39.0510254
      2,   18.0629616,   42.4970436
      3,   11.8524561,   36.4665146
      4,   14.6397963,   33.5959892
      5,   13.1702614,   32.1964111
      6,   11.5531521,   33.8943481
      7,   9.45713997,   31.8981152
      8,   7.36112785,   29.9018822
      9,    8.9782362,   28.2039433
     10,   12.1645365,   24.8583813
     11,   15.3508358,   21.5128174
     12,   18.5371361,   18.1672554
     13,    20.661335,   15.9368792
     14,   23.8476353,   12.5913162
     15,   27.0339355,   9.24575329
     16,   23.7110939,   6.08109379
     17,   21.4958668,   3.97132087
     18,   18.1730251,  0.806661725
     19,   14.8501854,  -2.35799742
     20,   11.6638851,  0.987565577
** ... 3562 like lines cut
*Element, type=CPS8R
   1,   88,  546,   87,  637, 1229, 1230, 1231, 1232
   2,  731,  661, 1119,  645, 1233, 1234, 1235, 1236
   3,  103,  799,  822,  762, 1237, 1238, 1239, 1240
   4,  528,  104,  618,  641, 1241, 1242, 1243, 1244
   5,  514,  624,  440,   86, 1245, 1246, 1247, 1248
   6,  438,  439,  366,  367, 1249, 1250, 1251, 1252
   7,  438,  104,  528,  439, 1253, 1241, 1254, 1249
   8,  420,   98,  516,  426, 1255, 1256, 1257, 1258
   9,  549,  733, 1082,  418, 1259, 1260, 1261, 1262
  10,  520,  413,  416,  545, 1263, 1264, 1265, 1266
  11,   84,  415,  417,  371, 1267, 1268, 1269, 1270
  12,  372,   88,  415,   84, 1271, 1272, 1267, 1273
  13,  373,  414,  546,   85, 1274, 1275, 1276, 1277
  14,  382,  381,    1,  262, 1278, 1279, 1280, 1281
  15,  586,  264,  265,   89, 1282, 1283, 1284, 1285
  16,  387,   89,  265,    4, 1286, 1284, 1287, 1288
  17,  773,  730,   91,  579, 1289, 1290, 1291, 1292
  18,   89,  536,  382,  586, 1293, 1294, 1295, 1285
  19,   87,  546,  414,  380, 1230, 1275, 1296, 1297
  20,  478,  497,  577,   99, 1298, 1299, 1300, 1301
** ... 1107 like lines cut
*Nset, nset=set-osso, generate
    1,  3582,     1
*Elset, elset=set-osso, generate
    1,  1127,     1
** Section: osso-section
*Solid Section, elset=set-osso, material=osso
22.5,
*End Instance
**  
*Node
      1,   30.2002602,   36.5308228,           0.
*Node
      2,  -8.33855247,   43.7199593,           0.
*Nset, nset=FH2
 2,
*Nset, nset=Set-52, instance=osso-cut-1
   50,   51,   52,   53,   54,   55,   56,   57,   58,  329,  330,  331,  332,  333,  334,  335
  336,  337,  338, 1716, 1718, 1721, 1813, 1828, 1839, 1850, 1852, 1889, 2672, 2673, 2676, 2678
 2680, 2682, 2685, 2759, 2763
*Elset, elset=Set-52, instance=osso-cut-1
 134, 135, 136, 160, 164, 167, 170, 171, 181, 435, 436, 437, 438, 439, 440, 441
 481, 486
*Nset, nset=Set-53
 2,
*Nset, nset=Set-54
 1,
*Nset, nset=fa_point
 1,
*Nset, nset=points-2, instance=implante-2-Copy4-1
 1286, 2197
*Nset, nset=points-2, instance=osso-cut-1
 3552,
*Nset, nset=set-points-evaluation, instance=implante-2-Copy4-1
 1295, 1802
*Nset, nset=set-points-evaluation, instance=osso-cut-1
 2353,
*Elset, elset=_fh2_sur_S1, internal, instance=implante-2-Copy4-1
 369, 476
*Elset, elset=_fh2_sur_S3, internal, instance=implante-2-Copy4-1
 562,
*Surface, type=ELEMENT, name=fh2_sur
_fh2_sur_S1, S1
_fh2_sur_S3, S3
*Elset, elset=_mast2-haste_S3, internal, instance=implante-2-Copy4-1
   1,   2,  20,  23,  35,  36,  40,  41,  44,  45,  48,  49,  52,  53,  54,  56
  57,  60,  69,  83,  84,  88,  93,  98, 100
*Elset, elset=_mast2-haste_S1, internal, instance=implante-2-Copy4-1
   8,  13,  22,  30,  33,  38,  39,  46,  47,  51,  59,  61,  67,  68,  70,  72
  74,  75,  76,  82,  85,  87,  89,  99, 101, 102, 107
*Elset, elset=_mast2-haste_S2, internal, instance=implante-2-Copy4-1
   3,   4,   5,   7,  15,  16,  27,  28,  30,  31,  69, 267
*Elset, elset=_mast2-haste_S4, internal, instance=implante-2-Copy4-1
   2,  17,  29,  45,  53, 129
*Surface, type=ELEMENT, name=mast2-haste
_mast2-haste_S3, S3
_mast2-haste_S1, S1
_mast2-haste_S2, S2
_mast2-haste_S4, S4
*Elset, elset=_master1-head_S4, internal, instance=implante-2-Copy4-1
 272, 299, 301, 314, 329, 330
*Elset, elset=_master1-head_S3, internal, instance=implante-2-Copy4-1
 302, 312
*Elset, elset=_master1-head_S2, internal, instance=implante-2-Copy4-1
 283, 313, 331, 338
*Surface, type=ELEMENT, name=master1-head
_master1-head_S4, S4
_master1-head_S3, S3
_master1-head_S2, S2
*Elset, elset=_sec1-bone_S3, internal, instance=osso-cut-1
  14, 113, 392
*Elset, elset=_sec1-bone_S1, internal, instance=osso-cut-1
 393, 394, 395, 415, 416, 460, 466
*Elset, elset=_sec1-bone_S4, internal, instance=osso-cut-1
 122, 562
*Surface, type=ELEMENT, name=sec1-bone
_sec1-bone_S3, S3
_sec1-bone_S1, S1
_sec1-bone_S4, S4
*Elset, elset=_sec2-bone_S2, internal, instance=osso-cut-1
   15,   30,   75,   76,   77,   84,   87,   89,  253,  304,  388,  395,  396,  400,  402,  404
  405,  412,  414,  463,  470,  521,  540,  556, 1076
*Elset, elset=_sec2-bone_S3, internal, instance=osso-cut-1
  16,  55,  95,  97,  99, 122, 302, 390, 397, 406, 407, 411, 541, 602
*Elset, elset=_sec2-bone_S4, internal, instance=osso-cut-1
  21,  29,  31,  51,  52,  82,  85,  88,  90, 121, 224, 241, 252, 389, 401, 413
 462,
*Elset, elset=_sec2-bone_S1, internal, instance=osso-cut-1
  30, 101, 108, 308, 396, 408, 409, 410, 412, 414, 542, 548, 561
*Surface, type=ELEMENT, name=sec2-bone
_sec2-bone_S2, S2
_sec2-bone_S3, S3
_sec2-bone_S4, S4
_sec2-bone_S1, S1
*Elset, elset=_surf_fa_S4, internal, instance=osso-cut-1
 211,
*Elset, elset=_surf_fa_S3, internal, instance=osso-cut-1
 391,
*Surface, type=ELEMENT, name=surf_fa
_surf_fa_S4, S4
_surf_fa_S3, S3
** Constraint: Constraint-3
*Coupling, constraint name=Constraint-3, ref node=FH2, surface=fh2_sur
*Distributing, weighting method=UNIFORM
** Constraint: Constraint-4
*Coupling, constraint name=Constraint-4, ref node=fa_point, surface=surf_fa
*Distributing, weighting method=UNIFORM
** Constraint: tie-1-head
*Tie, name=tie-1-head, adjust=yes, type=SURFACE TO SURFACE
sec1-bone, master1-head
** Constraint: tie-2-haste
*Tie, name=tie-2-haste, adjust=yes, type=SURFACE TO SURFACE
sec2-bone, mast2-haste
*End Assembly
** 
** MATERIALS
** 
*Material, name=Co-Cr
*Elastic
230000., 0.3
*Material, name=osso
*Elastic
17000., 0.3
*Material, name=titanium
*Elastic
110000., 0.3
** ----------------------------------------------------------------
** 
** STEP: Step-1
** 
*Step, name=Step-1, nlgeom=NO
*Static
1., 1., 1e-05, 1.
** 
** BOUNDARY CONDITIONS
** 
** Name: BC-1 Type: Symmetry/Antisymmetry/Encastre
*Boundary
Set-52, ENCASTRE
** 
** LOADS
** 
** Name: FH2   Type: Concentrated force
*Cload
Set-53, 1, 150.
Set-53, 2, -259.
** Name: Load-2   Type: Concentrated force
*Cload
Set-54, 1, -50.
Set-54, 2, 86.
** 
** OUTPUT REQUESTS
** 
*Restart, write, frequency=0
** 
** FIELD OUTPUT: F-Output-1
** 
*Output, field, variable=PRESELECT
** 
** HISTORY OUTPUT: H-Output-1
** 
*Output, history, variable=PRESELECT
*End Step
