*Heading
** Job name: tri-lin-1 Model name: Model-1
** Generated by: Abaqus/CAE 2022
*Preprint, echo=NO, model=NO, history=NO, contact=NO
**
** PARTS
**
*Part, name=osso
*End Part
**  
**
** ASSEMBLY
**
*Assembly, name=Assembly
**  
*Instance, name=osso-4, part=osso
*Node
      1,  -1.73076928,        -42.5
      2,  0.288461536,        -42.5
      3,   2.30769229,        -42.5
      4,   5.33653831,        -42.5
      5,   7.35576916,        -42.5
      6,        9.375,        -42.5
      7,   11.3942308,        -42.5
      8,   13.4134617,        -42.5
      9,   16.4423084,        -42.5
     10,   18.4615383,        -42.5
     11,   20.4807701,        -42.5
     12,        -3.75,        -42.5
     13,         22.5,        -42.5
     14,   22.6685085,   -40.537117
     15,    22.923172,  -37.5929604
     16,   23.0954762,  -35.6304092
     17,   23.2708187,  -33.6681252
     18,   23.5414257,  -30.7253876
     19,    23.728157,  -28.7641563
     20,   23.9209633,  -26.8035107
** ... 3492 like lines cut
*Element, type=CPS3
   1, 3399, 1280,  136
   2, 1501,  135, 1442
   3, 1613, 1547, 1466
   4, 1390, 1204,  120
   5, 1418, 1334, 1258
   6, 1576, 1482,  119
   7, 1705,  130, 1685
   8, 1913,  129, 1835
   9, 3471, 3262, 3457
  10, 3456, 1757, 3262
  11, 1255, 1202,  113
  12,  996,   14,  829
  13,  997,  996,  829
  14, 1167,  998,  999
  15, 1001,  999,  831
  16, 1218, 1001, 1002
  17, 3352, 1233, 1406
  18, 3254, 1731, 2018
  19, 3323, 1753, 1855
  20, 2036, 1983, 1927
** ... 6760 like lines cut
*Nset, nset=set-osso, generate
    1,  3512,     1
*Elset, elset=set-osso, generate
    1,  6780,     1
** Section: osso-section
*Solid Section, elset=set-osso, material=osso
22.5,
*End Instance
**  
*Node
      1,  -6.01999998,   41.7099991,           0.
*Node
      2,   29.8199997,   36.8199997,           0.
*Node
      3,   7.30999994,   18.3700008,           0.
*Nset, nset=Set-2
 1,
*Nset, nset=Set-4
 2,
*Nset, nset=base-osso, instance=osso-4
   1,   2,   3,   4,   5,   6,   7,   8,   9,  10,  11,  12,  13, 814, 815, 816
 817, 818, 819, 820, 821, 822, 823, 824, 825, 826, 827
*Elset, elset=base-osso, instance=osso-4
   49,   51,   56,   58,  563, 1545, 1546, 1547, 1548, 1549, 1550, 1554, 1654, 1740, 1922, 1924
 1926, 1933, 1942, 1945, 1949, 1952, 1954, 1956, 1957, 1959
*Nset, nset=m_Set-3
 1,
*Nset, nset=m_Set-5
 2,
*Nset, nset=m_Set-7
 3,
*Nset, nset=m_Set-8
 3,
*Nset, nset=test-points, instance=osso-4
  25,  33,  58, 100
*Elset, elset=_s_Surf-1_S2, internal, instance=osso-4
  341,  382,  383, 1677
*Elset, elset=_s_Surf-1_S1, internal, instance=osso-4
 1607,
*Surface, type=ELEMENT, name=s_Surf-1
_s_Surf-1_S2, S2
_s_Surf-1_S1, S1
*Elset, elset=_s_Surf-2_S2, internal, instance=osso-4
  245, 1592, 1883, 1885, 2153
*Elset, elset=_s_Surf-2_S1, internal, instance=osso-4
 1594,
*Surface, type=ELEMENT, name=s_Surf-2
_s_Surf-2_S2, S2
_s_Surf-2_S1, S1
*Elset, elset=_s_Surf-3_S2, internal, instance=osso-4
  341,  382,  383, 1677
*Elset, elset=_s_Surf-3_S1, internal, instance=osso-4
 1607,
*Surface, type=ELEMENT, name=s_Surf-3
_s_Surf-3_S2, S2
_s_Surf-3_S1, S1
*Elset, elset=_s_Surf-4_S2, internal, instance=osso-4
  245, 1592, 1883, 1885, 2153
*Elset, elset=_s_Surf-4_S1, internal, instance=osso-4
 1594,
*Surface, type=ELEMENT, name=s_Surf-4
_s_Surf-4_S2, S2
_s_Surf-4_S1, S1
** Constraint: Constraint-1
*Coupling, constraint name=Constraint-1, ref node=m_Set-3, surface=s_Surf-1
*Distributing, weighting method=UNIFORM
** Constraint: Constraint-2
*Coupling, constraint name=Constraint-2, ref node=m_Set-5, surface=s_Surf-2
*Distributing, weighting method=UNIFORM
** Constraint: Constraint-3
*Coupling, constraint name=Constraint-3, ref node=m_Set-7, surface=s_Surf-3
*Distributing, weighting method=UNIFORM
** Constraint: Constraint-4
*Coupling, constraint name=Constraint-4, ref node=m_Set-8, surface=s_Surf-4
*Distributing, weighting method=UNIFORM
*End Assembly
** 
** MATERIALS
** 
*Material, name=osso
*Elastic
17000., 0.3
** ----------------------------------------------------------------
** 
** STEP: step-1
** 
*Step, name=step-1, nlgeom=NO
*Static
1., 1., 1e-05, 1.
** 
** BOUNDARY CONDITIONS
** 
** Name: encastre-osso Type: Symmetry/Antisymmetry/Encastre
*Boundary
base-osso, ENCASTRE
** 
** LOADS
** 
** Name: FH2   Type: Concentrated force
*Cload
Set-2, 1, 150.
Set-2, 2, -259.
** Name: Load-2   Type: Concentrated force
*Cload
Set-4, 1, -50.
Set-4, 2, 86.
** 
** OUTPUT REQUESTS
** 
*Restart, write, frequency=0
** 
** FIELD OUTPUT: F-Output-1
** 
*Output, field, variable=PRESELECT
** 
** HISTORY OUTPUT: H-Output-1
** 
*Output, history, variable=PRESELECT
*End Step
